*SPEF "ieee 1481-1999"
*DESIGN "first_project"
*DATE "16:06:23 Saturday April 26, 2025"
*VENDOR "The OpenROAD Project"
*PROGRAM "OpenROAD"
*VERSION "b16bda7e82721d10566ff7e2b68f1ff0be9f9e38"
*DESIGN_FLOW "NAME_SCOPE LOCAL" "PIN_CAP NONE"
*DIVIDER /
*DELIMITER :
*BUS_DELIMITER []
*T_UNIT 1 NS
*C_UNIT 1 PF
*R_UNIT 1 OHM
*L_UNIT 1 HENRY

*NAME_MAP
*3 in[0]
*4 in[1]
*5 in[2]
*6 in[3]
*7 in[4]
*8 in[5]
*9 in[6]
*10 in[7]
*11 out[0]
*12 out[1]
*13 out[2]
*14 out[3]
*15 out[4]
*16 out[5]
*17 out[6]
*18 out[7]
*19 _00_
*20 _01_
*21 _02_
*22 _03_
*23 _04_
*24 _05_
*25 _06_
*26 _07_
*27 _08_
*28 net1
*29 net10
*30 net11
*31 net12
*32 net13
*33 net14
*34 net15
*35 net16
*36 net2
*37 net3
*38 net4
*39 net5
*40 net6
*41 net7
*42 net8
*43 net9
*44 FILLER_0_0_18
*45 FILLER_0_0_26
*46 FILLER_0_0_3
*47 FILLER_0_1_22
*48 FILLER_0_1_31
*49 FILLER_0_2_14
*50 FILLER_0_2_24
*51 FILLER_0_2_29
*52 FILLER_0_2_34
*53 FILLER_0_2_6
*54 FILLER_0_3_15
*55 FILLER_0_3_27
*56 FILLER_0_3_9
*57 FILLER_0_4_3
*58 FILLER_0_4_36
*59 FILLER_0_5_18
*60 FILLER_0_5_29
*61 FILLER_0_5_6
*62 PHY_EDGE_ROW_0_Left_6
*63 PHY_EDGE_ROW_0_Right_0
*64 PHY_EDGE_ROW_1_Left_7
*65 PHY_EDGE_ROW_1_Right_1
*66 PHY_EDGE_ROW_2_Left_8
*67 PHY_EDGE_ROW_2_Right_2
*68 PHY_EDGE_ROW_3_Left_9
*69 PHY_EDGE_ROW_3_Right_3
*70 PHY_EDGE_ROW_4_Left_10
*71 PHY_EDGE_ROW_4_Right_4
*72 PHY_EDGE_ROW_5_Left_11
*73 PHY_EDGE_ROW_5_Right_5
*74 TAP_TAPCELL_ROW_0_12
*75 TAP_TAPCELL_ROW_2_13
*76 TAP_TAPCELL_ROW_4_14
*77 TAP_TAPCELL_ROW_5_15
*78 _09_
*79 _10_
*80 _11_
*81 _12_
*82 _13_
*83 _14_
*84 _15_
*85 _16_
*86 _17_
*87 _18_
*88 _19_
*89 _20_
*90 _21_
*91 _22_
*92 _23_
*93 _24_
*94 _25_
*95 input1
*96 input2
*97 input3
*98 input4
*99 input5
*100 input6
*101 input7
*102 input8
*103 output10
*104 output11
*105 output12
*106 output13
*107 output14
*108 output15
*109 output16
*110 output9

*PORTS
in[0] I
in[1] I
in[2] I
in[3] I
in[4] I
in[5] I
in[6] I
in[7] I
out[0] O
out[1] O
out[2] O
out[3] O
out[4] O
out[5] O
out[6] O
out[7] O

*D_NET *3 0.0012124
*CONN
*P in[0] I
*I *95:A I *D sky130_fd_sc_hd__buf_1
*CAP
1 in[0] 0.000594621
2 *95:A 0.000594621
3 *95:A *90:A1 3.67279e-06
4 *95:A *96:A 0
5 *95:A *97:A 1.94879e-05
*RES
1 in[0] *95:A 25.4086 
*END

*D_NET *4 0.00132054
*CONN
*P in[1] I
*I *96:A I *D sky130_fd_sc_hd__buf_1
*CAP
1 in[1] 0.000660272
2 *96:A 0.000660272
3 *96:A *97:A 0
4 *95:A *96:A 0
*RES
1 in[1] *96:A 22.4143 
*END

*D_NET *5 0.00139267
*CONN
*P in[2] I
*I *97:A I *D sky130_fd_sc_hd__clkbuf_1
*CAP
1 in[2] 0.000562934
2 *97:A 0.000562934
3 *97:A *88:A 2.28726e-05
4 *97:A *90:A1 9.84229e-05
5 *97:A *98:A 0
6 *97:A *28:6 1.04766e-05
7 *97:A *37:6 6.90411e-05
8 *97:A *37:12 4.64978e-05
9 *95:A *97:A 1.94879e-05
10 *96:A *97:A 0
*RES
1 in[2] *97:A 24.7651 
*END

*D_NET *6 0.000605629
*CONN
*P in[3] I
*I *98:A I *D sky130_fd_sc_hd__clkbuf_1
*CAP
1 in[3] 0.000277199
2 *98:A 0.000277199
3 *98:A *99:A 1.1192e-05
4 *98:A *19:12 4.00395e-05
5 *97:A *98:A 0
*RES
1 in[3] *98:A 19.3371 
*END

*D_NET *7 0.000895493
*CONN
*P in[4] I
*I *99:A I *D sky130_fd_sc_hd__buf_1
*CAP
1 in[4] 0.00042523
2 *99:A 0.00042523
3 *99:A *100:A 5.31679e-06
4 *99:A *19:12 0
5 *99:A *38:8 2.85234e-05
6 *98:A *99:A 1.1192e-05
*RES
1 in[4] *99:A 23.3553 
*END

*D_NET *8 0.000805606
*CONN
*P in[5] I
*I *100:A I *D sky130_fd_sc_hd__buf_1
*CAP
1 in[5] 0.000400144
2 *100:A 0.000400144
3 *100:A *83:A3 0
4 *100:A *101:A 0
5 *100:A *19:12 0
6 *100:A *19:14 0
7 *99:A *100:A 5.31679e-06
*RES
1 in[5] *100:A 22.9088 
*END

*D_NET *9 0.00133377
*CONN
*P in[6] I
*I *101:A I *D sky130_fd_sc_hd__clkbuf_1
*CAP
1 in[6] 0.000586085
2 *101:A 0.000586085
3 *101:A *83:A3 5.62995e-05
4 *101:A *85:A_N 1.13883e-05
5 *101:A *102:A 1.3701e-05
6 *101:A *41:8 8.02077e-05
7 *100:A *101:A 0
*RES
1 in[6] *101:A 25.3894 
*END

*D_NET *10 0.00201852
*CONN
*P in[7] I
*I *102:A I *D sky130_fd_sc_hd__clkbuf_1
*CAP
1 in[7] 0.000999383
2 *102:A 0.000999383
3 *102:A *109:A 6.05161e-06
4 *101:A *102:A 1.3701e-05
*RES
1 in[7] *102:A 26.2944 
*END

*D_NET *11 0.00116338
*CONN
*P out[0] O
*I *110:X O *D sky130_fd_sc_hd__clkbuf_4
*CAP
1 out[0] 0.000581692
2 *110:X 0.000581692
3 out[0] out[1] 0
*RES
1 *110:X out[0] 25.105 
*END

*D_NET *12 0.00142427
*CONN
*P out[1] O
*I *103:X O *D sky130_fd_sc_hd__buf_2
*CAP
1 out[1] 0.000709998
2 *103:X 0.000709998
3 out[1] out[2] 4.27842e-06
4 out[0] out[1] 0
*RES
1 *103:X out[1] 21.9513 
*END

*D_NET *13 0.00167158
*CONN
*P out[2] O
*I *104:X O *D sky130_fd_sc_hd__buf_2
*CAP
1 out[2] 0.000828676
2 *104:X 0.000828676
3 out[2] out[3] 0
4 out[2] *88:A 3.89621e-06
5 out[2] *104:A 6.05161e-06
6 out[1] out[2] 4.27842e-06
*RES
1 *104:X out[2] 19.899 
*END

*D_NET *14 0.00100139
*CONN
*P out[3] O
*I *105:X O *D sky130_fd_sc_hd__buf_2
*CAP
1 out[3] 0.000449788
2 *105:X 0.000449788
3 out[3] out[4] 7.68515e-05
4 out[3] *105:A 2.49666e-05
5 out[2] out[3] 0
*RES
1 *105:X out[3] 25.6256 
*END

*D_NET *15 0.0015103
*CONN
*P out[4] O
*I *106:X O *D sky130_fd_sc_hd__buf_2
*CAP
1 out[4] 0.00071488
2 *106:X 0.00071488
3 out[4] out[5] 0
4 out[4] *106:A 3.69047e-06
5 out[3] out[4] 7.68515e-05
*RES
1 *106:X out[4] 20.788 
*END

*D_NET *16 0.000658684
*CONN
*P out[5] O
*I *107:X O *D sky130_fd_sc_hd__buf_2
*CAP
1 out[5] 0.000319033
2 *107:X 0.000319033
3 out[5] out[6] 0
4 out[5] *108:A 2.06178e-05
5 out[4] out[5] 0
*RES
1 *107:X out[5] 18.1949 
*END

*D_NET *17 0.000679956
*CONN
*P out[6] O
*I *108:X O *D sky130_fd_sc_hd__buf_2
*CAP
1 out[6] 0.000339978
2 *108:X 0.000339978
3 out[6] out[7] 0
4 out[5] out[6] 0
*RES
1 *108:X out[6] 19.4092 
*END

*D_NET *18 0.00115195
*CONN
*P out[7] O
*I *109:X O *D sky130_fd_sc_hd__buf_2
*CAP
1 out[7] 0.000575975
2 *109:X 0.000575975
3 out[6] out[7] 0
*RES
1 *109:X out[7] 23.3403 
*END

*D_NET *19 0.0037306
*CONN
*I *93:B1_N I *D sky130_fd_sc_hd__a21boi_1
*I *79:B I *D sky130_fd_sc_hd__nor2_1
*I *80:B I *D sky130_fd_sc_hd__and2_1
*I *84:D I *D sky130_fd_sc_hd__or4_1
*I *83:A3 I *D sky130_fd_sc_hd__o31a_1
*I *78:X O *D sky130_fd_sc_hd__or4_2
*CAP
1 *93:B1_N 0.000150537
2 *79:B 3.64436e-05
3 *80:B 0.000172923
4 *84:D 5.3398e-05
5 *83:A3 0.000186342
6 *78:X 6.0452e-05
7 *19:42 0.000410088
8 *19:14 0.000309419
9 *19:12 0.000490808
10 *19:8 0.000431397
11 *79:B *20:10 1.32056e-05
12 *80:B *20:10 4.67719e-05
13 *83:A3 *83:A1 1.12578e-05
14 *83:A3 *83:B1 3.34366e-05
15 *83:A3 *84:C 0.000140764
16 *83:A3 *39:14 1.52705e-05
17 *83:A3 *41:8 5.33005e-05
18 *84:D *84:A 5.49995e-05
19 *84:D *23:6 1.46231e-05
20 *93:B1_N *90:A1 6.57032e-05
21 *93:B1_N *105:A 1.8461e-05
22 *93:B1_N *28:14 8.43535e-06
23 *93:B1_N *28:20 3.8624e-05
24 *19:8 *90:A1 6.05161e-06
25 *19:12 *78:A 0.000126446
26 *19:12 *89:A 2.46353e-05
27 *19:12 *89:B 1.33248e-05
28 *19:12 *39:8 7.46072e-05
29 *19:12 *39:14 1.6815e-05
30 *19:14 *39:14 5.92441e-05
31 *19:42 *39:40 0.000358841
32 *19:42 *40:10 0.000137639
33 *98:A *19:12 4.00395e-05
34 *99:A *19:12 0
35 *100:A *83:A3 0
36 *100:A *19:12 0
37 *100:A *19:14 0
38 *101:A *83:A3 5.62995e-05
*RES
1 *78:X *19:8 10.2643 
2 *19:8 *19:12 9.48214 
3 *19:12 *19:14 1.64286 
4 *19:14 *83:A3 18.2643 
5 *19:14 *84:D 14.7464 
6 *19:12 *19:42 9.14286 
7 *19:42 *80:B 12.2286 
8 *19:42 *79:B 10.2643 
9 *19:8 *93:B1_N 11.9071 
*END

*D_NET *20 0.000920855
*CONN
*I *81:A I *D sky130_fd_sc_hd__nor2_1
*I *82:B I *D sky130_fd_sc_hd__xnor2_1
*I *79:Y O *D sky130_fd_sc_hd__nor2_1
*CAP
1 *81:A 0
2 *82:B 0.000152134
3 *79:Y 0.000228222
4 *20:10 0.000380356
5 *20:10 *81:B 0.000100165
6 *79:B *20:10 1.32056e-05
7 *80:B *20:10 4.67719e-05
*RES
1 *79:Y *20:10 13.9786 
2 *20:10 *82:B 20.8536 
3 *20:10 *81:A 9.3 
*END

*D_NET *21 0.000170059
*CONN
*I *81:B I *D sky130_fd_sc_hd__nor2_1
*I *80:X O *D sky130_fd_sc_hd__and2_1
*CAP
1 *81:B 3.49469e-05
2 *80:X 3.49469e-05
3 *20:10 *81:B 0.000100165
*RES
1 *80:X *81:B 19.5464 
*END

*D_NET *22 0.000764268
*CONN
*I *85:A_N I *D sky130_fd_sc_hd__and2b_1
*I *83:X O *D sky130_fd_sc_hd__o31a_1
*CAP
1 *85:A_N 0.000190301
2 *83:X 0.000190301
3 *85:A_N *82:A 2.23592e-05
4 *85:A_N *85:B 0.000139293
5 *85:A_N *87:A 0.00015403
6 *85:A_N *40:16 0
7 *85:A_N *41:8 5.65955e-05
8 *101:A *85:A_N 1.13883e-05
*RES
1 *83:X *85:A_N 31.5464 
*END

*D_NET *23 0.00128906
*CONN
*I *85:B I *D sky130_fd_sc_hd__and2b_1
*I *87:B I *D sky130_fd_sc_hd__xor2_1
*I *84:X O *D sky130_fd_sc_hd__or4_1
*CAP
1 *85:B 0.000144348
2 *87:B 2.22847e-05
3 *84:X 0.000187808
4 *23:6 0.000354441
5 *85:B *82:A 7.76914e-05
6 *85:B *87:A 4.60153e-05
7 *85:B *109:A 0.000185124
8 *23:6 *82:A 1.83136e-05
9 *23:6 *84:A 4.58194e-05
10 *23:6 *40:16 5.33005e-05
11 *84:D *23:6 1.46231e-05
12 *85:A_N *85:B 0.000139293
*RES
1 *84:X *23:6 12.3 
2 *23:6 *87:B 9.72857 
3 *23:6 *85:B 13.1214 
*END

*D_NET *24 0.000994893
*CONN
*I *86:A I *D sky130_fd_sc_hd__clkbuf_1
*I *85:X O *D sky130_fd_sc_hd__and2b_1
*CAP
1 *86:A 0.000418758
2 *85:X 0.000418758
3 *86:A *82:A 0.000126509
4 *86:A *107:A 3.08664e-05
*RES
1 *85:X *86:A 33.475 
*END

*D_NET *25 0.000607093
*CONN
*I *91:A I *D sky130_fd_sc_hd__and2_1
*I *93:A2 I *D sky130_fd_sc_hd__a21boi_1
*I *89:X O *D sky130_fd_sc_hd__or3_1
*CAP
1 *91:A 6.54681e-06
2 *93:A2 0
3 *89:X 0.0001082
4 *25:12 0.000114746
5 *91:A *91:B 5.65955e-05
6 *91:A *105:A 4.33899e-05
7 *25:12 *91:B 9.87672e-05
8 *25:12 *93:A1 8.00806e-05
9 *25:12 *105:A 9.87672e-05
*RES
1 *89:X *25:12 20.8893 
2 *25:12 *93:A2 9.3 
3 *25:12 *91:A 9.83571 
*END

*D_NET *26 0.00142329
*CONN
*I *91:B I *D sky130_fd_sc_hd__and2_1
*I *90:Y O *D sky130_fd_sc_hd__o21ai_1
*CAP
1 *91:B 0.000335726
2 *90:Y 0.000335726
3 *91:B *89:B 2.38651e-06
4 *91:B *105:A 5.63789e-05
5 *91:B *28:40 0.00031614
6 *91:B *36:16 8.07712e-05
7 *91:B *37:6 8.47022e-05
8 *91:B *37:12 5.60962e-05
9 *91:A *91:B 5.65955e-05
10 *25:12 *91:B 9.87672e-05
*RES
1 *90:Y *91:B 34.6893 
*END

*D_NET *27 0.000207302
*CONN
*I *92:A I *D sky130_fd_sc_hd__clkbuf_1
*I *91:X O *D sky130_fd_sc_hd__and2_1
*CAP
1 *92:A 2.29196e-05
2 *91:X 2.29196e-05
3 *92:A *105:A 8.07313e-05
4 *92:A *28:40 8.07313e-05
*RES
1 *91:X *92:A 19.9571 
*END

*D_NET *28 0.00321763
*CONN
*I *90:A2 I *D sky130_fd_sc_hd__o21ai_1
*I *88:B I *D sky130_fd_sc_hd__xor2_1
*I *94:A I *D sky130_fd_sc_hd__clkbuf_1
*I *78:D I *D sky130_fd_sc_hd__or4_2
*I *89:C I *D sky130_fd_sc_hd__or3_1
*I *95:X O *D sky130_fd_sc_hd__buf_1
*CAP
1 *90:A2 7.098e-05
2 *88:B 0.000106217
3 *94:A 2.2335e-05
4 *78:D 0
5 *89:C 0.000114607
6 *95:X 8.18897e-05
7 *28:40 0.000391098
8 *28:20 0.000161933
9 *28:14 0.000414196
10 *28:6 0.000257193
11 *88:B *88:A 0.000273173
12 *88:B *105:A 1.74352e-05
13 *88:B *110:A 3.18676e-05
14 *89:C *89:B 0.000171224
15 *90:A2 *90:A1 1.21258e-05
16 *90:A2 *37:12 5.47047e-05
17 *28:6 *90:A1 1.58163e-05
18 *28:14 *89:A 3.31595e-05
19 *28:14 *90:A1 0.000198273
20 *28:14 *36:16 9.83442e-05
21 *28:14 *37:12 6.73181e-05
22 *28:40 *105:A 3.07245e-05
23 *28:40 *36:16 0.000138606
24 *91:B *28:40 0.00031614
25 *92:A *28:40 8.07313e-05
26 *93:B1_N *28:14 8.43535e-06
27 *93:B1_N *28:20 3.8624e-05
28 *97:A *28:6 1.04766e-05
*RES
1 *95:X *28:6 10.2464 
2 *28:6 *28:14 12.1071 
3 *28:14 *28:20 1.39286 
4 *28:20 *89:C 20.55 
5 *28:20 *78:D 9.3 
6 *28:14 *28:40 6.30357 
7 *28:40 *94:A 9.72857 
8 *28:40 *88:B 12.3 
9 *28:6 *90:A2 10.2464 
*END

*D_NET *29 0.000464825
*CONN
*I *103:A I *D sky130_fd_sc_hd__buf_2
*I *88:X O *D sky130_fd_sc_hd__xor2_1
*CAP
1 *103:A 0.000143388
2 *88:X 0.000143388
3 *103:A *110:A 0.000178049
*RES
1 *88:X *103:A 30.4929 
*END

*D_NET *30 0.000365082
*CONN
*I *104:A I *D sky130_fd_sc_hd__buf_2
*I *92:X O *D sky130_fd_sc_hd__clkbuf_1
*CAP
1 *104:A 0.000162175
2 *92:X 0.000162175
3 *104:A *88:A 3.46801e-05
4 out[2] *104:A 6.05161e-06
*RES
1 *92:X *104:A 30.4929 
*END

*D_NET *31 0.00191077
*CONN
*I *105:A I *D sky130_fd_sc_hd__buf_2
*I *93:Y O *D sky130_fd_sc_hd__a21boi_1
*CAP
1 *105:A 0.000683362
2 *93:Y 0.000683362
3 *105:A *88:A 0.000173192
4 out[3] *105:A 2.49666e-05
5 *88:B *105:A 1.74352e-05
6 *91:A *105:A 4.33899e-05
7 *91:B *105:A 5.63789e-05
8 *92:A *105:A 8.07313e-05
9 *93:B1_N *105:A 1.8461e-05
10 *25:12 *105:A 9.87672e-05
11 *28:40 *105:A 3.07245e-05
*RES
1 *93:Y *105:A 38.5643 
*END

*D_NET *32 0.000446251
*CONN
*I *106:A I *D sky130_fd_sc_hd__buf_2
*I *81:Y O *D sky130_fd_sc_hd__nor2_1
*CAP
1 *106:A 0.00022128
2 *81:Y 0.00022128
3 out[4] *106:A 3.69047e-06
*RES
1 *81:Y *106:A 31.3143 
*END

*D_NET *33 0.000274819
*CONN
*I *107:A I *D sky130_fd_sc_hd__buf_2
*I *82:Y O *D sky130_fd_sc_hd__xnor2_1
*CAP
1 *107:A 0.000121976
2 *82:Y 0.000121976
3 *86:A *107:A 3.08664e-05
*RES
1 *82:Y *107:A 20.6893 
*END

*D_NET *34 0.00093981
*CONN
*I *108:A I *D sky130_fd_sc_hd__buf_2
*I *86:X O *D sky130_fd_sc_hd__clkbuf_1
*CAP
1 *108:A 0.000459596
2 *86:X 0.000459596
3 out[5] *108:A 2.06178e-05
*RES
1 *86:X *108:A 34.6893 
*END

*D_NET *35 0.00121472
*CONN
*I *109:A I *D sky130_fd_sc_hd__buf_2
*I *87:X O *D sky130_fd_sc_hd__xor2_1
*CAP
1 *109:A 0.000505044
2 *87:X 0.000505044
3 *109:A *82:A 1.34548e-05
4 *109:A *87:A 0
5 *85:B *109:A 0.000185124
6 *102:A *109:A 6.05161e-06
*RES
1 *87:X *109:A 35.5464 
*END

*D_NET *36 0.00430566
*CONN
*I *88:A I *D sky130_fd_sc_hd__xor2_1
*I *78:C I *D sky130_fd_sc_hd__or4_2
*I *90:A1 I *D sky130_fd_sc_hd__o21ai_1
*I *89:B I *D sky130_fd_sc_hd__or3_1
*I *96:X O *D sky130_fd_sc_hd__buf_1
*CAP
1 *88:A 0.000601727
2 *78:C 0
3 *90:A1 0.000212398
4 *89:B 0.000165688
5 *96:X 0
6 *36:29 0.000212398
7 *36:16 0.000415771
8 *36:4 0.00085181
9 *88:A *110:A 3.75868e-05
10 *88:A *37:6 5.50052e-05
11 *89:B *89:A 0.000244514
12 *89:B *39:8 1.00332e-05
13 *90:A1 *89:A 1.18064e-05
14 *90:A1 *37:12 1.85882e-05
15 *36:16 *89:A 4.57676e-05
16 *36:16 *37:12 1.00332e-05
17 out[2] *88:A 3.89621e-06
18 *88:B *88:A 0.000273173
19 *89:C *89:B 0.000171224
20 *90:A2 *90:A1 1.21258e-05
21 *91:B *89:B 2.38651e-06
22 *91:B *36:16 8.07712e-05
23 *93:B1_N *90:A1 6.57032e-05
24 *95:A *90:A1 3.67279e-06
25 *97:A *88:A 2.28726e-05
26 *97:A *90:A1 9.84229e-05
27 *104:A *88:A 3.46801e-05
28 *105:A *88:A 0.000173192
29 *19:8 *90:A1 6.05161e-06
30 *19:12 *89:B 1.33248e-05
31 *28:6 *90:A1 1.58163e-05
32 *28:14 *90:A1 0.000198273
33 *28:14 *36:16 9.83442e-05
34 *28:40 *36:16 0.000138606
*RES
1 *96:X *36:4 9.3 
2 *36:4 *36:16 17.4464 
3 *36:16 *89:B 17.8 
4 *36:16 *36:29 4.5 
5 *36:29 *90:A1 23.1571 
6 *36:29 *78:C 9.3 
7 *36:4 *88:A 28.3 
*END

*D_NET *37 0.00171428
*CONN
*I *90:B1 I *D sky130_fd_sc_hd__o21ai_1
*I *78:B I *D sky130_fd_sc_hd__or4_2
*I *89:A I *D sky130_fd_sc_hd__or3_1
*I *97:X O *D sky130_fd_sc_hd__clkbuf_1
*CAP
1 *90:B1 2.22847e-05
2 *78:B 0
3 *89:A 0.000158777
4 *97:X 4.85576e-05
5 *37:12 0.000264066
6 *37:6 0.000176131
7 *89:A *78:A 0.000150632
8 *89:A *93:A1 7.1959e-05
9 *88:A *37:6 5.50052e-05
10 *89:B *89:A 0.000244514
11 *90:A1 *89:A 1.18064e-05
12 *90:A1 *37:12 1.85882e-05
13 *90:A2 *37:12 5.47047e-05
14 *91:B *37:6 8.47022e-05
15 *91:B *37:12 5.60962e-05
16 *97:A *37:6 6.90411e-05
17 *97:A *37:12 4.64978e-05
18 *19:12 *89:A 2.46353e-05
19 *28:14 *89:A 3.31595e-05
20 *28:14 *37:12 6.73181e-05
21 *36:16 *89:A 4.57676e-05
22 *36:16 *37:12 1.00332e-05
*RES
1 *97:X *37:6 11.0679 
2 *37:6 *37:12 7.19643 
3 *37:12 *89:A 18.6214 
4 *37:12 *78:B 13.8 
5 *37:6 *90:B1 9.72857 
*END

*D_NET *38 0.00130963
*CONN
*I *93:A1 I *D sky130_fd_sc_hd__a21boi_1
*I *78:A I *D sky130_fd_sc_hd__or4_2
*I *98:X O *D sky130_fd_sc_hd__clkbuf_1
*CAP
1 *93:A1 0.000289531
2 *78:A 5.16687e-05
3 *98:X 8.47968e-05
4 *38:8 0.000425997
5 *89:A *78:A 0.000150632
6 *89:A *93:A1 7.1959e-05
7 *99:A *38:8 2.85234e-05
8 *19:12 *78:A 0.000126446
9 *25:12 *93:A1 8.00806e-05
*RES
1 *98:X *38:8 10.675 
2 *38:8 *78:A 20.2464 
3 *38:8 *93:A1 23.05 
*END

*D_NET *39 0.00254521
*CONN
*I *79:A I *D sky130_fd_sc_hd__nor2_1
*I *80:A I *D sky130_fd_sc_hd__and2_1
*I *84:A I *D sky130_fd_sc_hd__or4_1
*I *83:A1 I *D sky130_fd_sc_hd__o31a_1
*I *99:X O *D sky130_fd_sc_hd__buf_1
*CAP
1 *79:A 0
2 *80:A 0.000170744
3 *84:A 4.23808e-05
4 *83:A1 0.000172228
5 *99:X 7.78998e-05
6 *39:40 0.000296594
7 *39:14 0.000333776
8 *39:8 0.000322917
9 *83:A1 *83:A2 0.000125166
10 *83:A1 *83:B1 5.58941e-05
11 *83:A1 *84:C 0.000149307
12 *83:A1 *40:16 3.50522e-05
13 *39:14 *40:10 9.06059e-05
14 *39:14 *40:16 2.57581e-05
15 *83:A3 *83:A1 1.12578e-05
16 *83:A3 *39:14 1.52705e-05
17 *84:D *84:A 5.49995e-05
18 *89:B *39:8 1.00332e-05
19 *19:12 *39:8 7.46072e-05
20 *19:12 *39:14 1.6815e-05
21 *19:14 *39:14 5.92441e-05
22 *19:42 *39:40 0.000358841
23 *23:6 *84:A 4.58194e-05
*RES
1 *99:X *39:8 15.7464 
2 *39:8 *39:14 2.91071 
3 *39:14 *83:A1 18.0321 
4 *39:14 *84:A 14.7464 
5 *39:8 *39:40 7.91071 
6 *39:40 *80:A 20.2107 
7 *39:40 *79:A 9.3 
*END

*D_NET *40 0.00241815
*CONN
*I *82:A I *D sky130_fd_sc_hd__xnor2_1
*I *84:B I *D sky130_fd_sc_hd__or4_1
*I *83:A2 I *D sky130_fd_sc_hd__o31a_1
*I *100:X O *D sky130_fd_sc_hd__buf_1
*CAP
1 *82:A 0.000353192
2 *84:B 0
3 *83:A2 7.12808e-05
4 *100:X 0.000203995
5 *40:16 0.000196366
6 *40:10 0.000682272
7 *82:A *87:A 0.000185197
8 *83:A1 *83:A2 0.000125166
9 *83:A1 *40:16 3.50522e-05
10 *85:A_N *82:A 2.23592e-05
11 *85:A_N *40:16 0
12 *85:B *82:A 7.76914e-05
13 *86:A *82:A 0.000126509
14 *109:A *82:A 1.34548e-05
15 *19:42 *40:10 0.000137639
16 *23:6 *82:A 1.83136e-05
17 *23:6 *40:16 5.33005e-05
18 *39:14 *40:10 9.06059e-05
19 *39:14 *40:16 2.57581e-05
*RES
1 *100:X *40:10 16.9071 
2 *40:10 *40:16 6.375 
3 *40:16 *83:A2 19.9429 
4 *40:16 *84:B 9.3 
5 *40:10 *82:A 21.4607 
*END

*D_NET *41 0.000952979
*CONN
*I *84:C I *D sky130_fd_sc_hd__or4_1
*I *83:B1 I *D sky130_fd_sc_hd__o31a_1
*I *101:X O *D sky130_fd_sc_hd__clkbuf_1
*CAP
1 *84:C 4.39317e-05
2 *83:B1 2.27205e-05
3 *101:X 0.000125084
4 *41:8 0.000191737
5 *83:A1 *83:B1 5.58941e-05
6 *83:A1 *84:C 0.000149307
7 *83:A3 *83:B1 3.34366e-05
8 *83:A3 *84:C 0.000140764
9 *83:A3 *41:8 5.33005e-05
10 *85:A_N *41:8 5.65955e-05
11 *101:A *41:8 8.02077e-05
*RES
1 *101:X *41:8 16.3893 
2 *41:8 *83:B1 14.5321 
3 *41:8 *84:C 15.7464 
*END

*D_NET *42 0.00067742
*CONN
*I *87:A I *D sky130_fd_sc_hd__xor2_1
*I *102:X O *D sky130_fd_sc_hd__clkbuf_1
*CAP
1 *87:A 0.000146089
2 *102:X 0.000146089
3 *82:A *87:A 0.000185197
4 *85:A_N *87:A 0.00015403
5 *85:B *87:A 4.60153e-05
6 *109:A *87:A 0
*RES
1 *102:X *87:A 31.3143 
*END

*D_NET *43 0.000716168
*CONN
*I *110:A I *D sky130_fd_sc_hd__clkbuf_4
*I *94:X O *D sky130_fd_sc_hd__clkbuf_1
*CAP
1 *110:A 0.000234332
2 *94:X 0.000234332
3 *88:A *110:A 3.75868e-05
4 *88:B *110:A 3.18676e-05
5 *103:A *110:A 0.000178049
*RES
1 *94:X *110:A 31.975 
*END
