*SPEF "ieee 1481-1999"
*DESIGN "first_project"
*DATE "17:12:10 Saturday April 26, 2025"
*VENDOR "The OpenROAD Project"
*PROGRAM "OpenROAD"
*VERSION "b16bda7e82721d10566ff7e2b68f1ff0be9f9e38"
*DESIGN_FLOW "NAME_SCOPE LOCAL" "PIN_CAP NONE"
*DIVIDER /
*DELIMITER :
*BUS_DELIMITER []
*T_UNIT 1 NS
*C_UNIT 1 PF
*R_UNIT 1 OHM
*L_UNIT 1 HENRY

*NAME_MAP
*3 in[0]
*4 in[1]
*5 in[2]
*6 in[3]
*7 in[4]
*8 in[5]
*9 in[6]
*10 in[7]
*11 out[0]
*12 out[1]
*13 out[2]
*14 out[3]
*15 out[4]
*16 out[5]
*17 out[6]
*18 out[7]
*19 _00_
*20 _01_
*21 _02_
*22 _03_
*23 _04_
*24 _05_
*25 _06_
*26 _07_
*27 _08_
*28 net1
*29 net10
*30 net11
*31 net12
*32 net13
*33 net14
*34 net15
*35 net16
*36 net2
*37 net3
*38 net4
*39 net5
*40 net6
*41 net7
*42 net8
*43 net9
*44 FILLER_0_0_15
*45 FILLER_0_0_27
*46 FILLER_0_0_29
*47 FILLER_0_0_37
*48 FILLER_0_0_6
*49 FILLER_0_10_18
*50 FILLER_0_10_26
*51 FILLER_0_10_29
*52 FILLER_0_10_41
*53 FILLER_0_10_6
*54 FILLER_0_11_18
*55 FILLER_0_11_24
*56 FILLER_0_11_36
*57 FILLER_0_11_6
*58 FILLER_0_12_13
*59 FILLER_0_12_25
*60 FILLER_0_12_32
*61 FILLER_0_1_18
*62 FILLER_0_1_23
*63 FILLER_0_1_35
*64 FILLER_0_1_47
*65 FILLER_0_1_6
*66 FILLER_0_2_15
*67 FILLER_0_2_27
*68 FILLER_0_2_29
*69 FILLER_0_2_3
*70 FILLER_0_2_41
*71 FILLER_0_2_47
*72 FILLER_0_3_11
*73 FILLER_0_3_23
*74 FILLER_0_3_3
*75 FILLER_0_3_35
*76 FILLER_0_3_40
*77 FILLER_0_4_15
*78 FILLER_0_4_27
*79 FILLER_0_4_29
*80 FILLER_0_4_3
*81 FILLER_0_4_41
*82 FILLER_0_4_47
*83 FILLER_0_5_10
*84 FILLER_0_5_18
*85 FILLER_0_5_30
*86 FILLER_0_5_6
*87 FILLER_0_6_15
*88 FILLER_0_6_27
*89 FILLER_0_6_29
*90 FILLER_0_6_3
*91 FILLER_0_6_33
*92 FILLER_0_6_37
*93 FILLER_0_6_45
*94 FILLER_0_7_18
*95 FILLER_0_7_30
*96 FILLER_0_7_43
*97 FILLER_0_7_47
*98 FILLER_0_7_6
*99 FILLER_0_8_15
*100 FILLER_0_8_27
*101 FILLER_0_8_3
*102 FILLER_0_8_36
*103 FILLER_0_9_15
*104 FILLER_0_9_27
*105 FILLER_0_9_3
*106 FILLER_0_9_39
*107 FILLER_0_9_47
*108 FILLER_0_9_9
*109 PHY_EDGE_ROW_0_Left_13
*110 PHY_EDGE_ROW_0_Right_0
*111 PHY_EDGE_ROW_10_Left_23
*112 PHY_EDGE_ROW_10_Right_10
*113 PHY_EDGE_ROW_11_Left_24
*114 PHY_EDGE_ROW_11_Right_11
*115 PHY_EDGE_ROW_12_Left_25
*116 PHY_EDGE_ROW_12_Right_12
*117 PHY_EDGE_ROW_1_Left_14
*118 PHY_EDGE_ROW_1_Right_1
*119 PHY_EDGE_ROW_2_Left_15
*120 PHY_EDGE_ROW_2_Right_2
*121 PHY_EDGE_ROW_3_Left_16
*122 PHY_EDGE_ROW_3_Right_3
*123 PHY_EDGE_ROW_4_Left_17
*124 PHY_EDGE_ROW_4_Right_4
*125 PHY_EDGE_ROW_5_Left_18
*126 PHY_EDGE_ROW_5_Right_5
*127 PHY_EDGE_ROW_6_Left_19
*128 PHY_EDGE_ROW_6_Right_6
*129 PHY_EDGE_ROW_7_Left_20
*130 PHY_EDGE_ROW_7_Right_7
*131 PHY_EDGE_ROW_8_Left_21
*132 PHY_EDGE_ROW_8_Right_8
*133 PHY_EDGE_ROW_9_Left_22
*134 PHY_EDGE_ROW_9_Right_9
*135 TAP_TAPCELL_ROW_0_26
*136 TAP_TAPCELL_ROW_10_31
*137 TAP_TAPCELL_ROW_12_32
*138 TAP_TAPCELL_ROW_2_27
*139 TAP_TAPCELL_ROW_4_28
*140 TAP_TAPCELL_ROW_6_29
*141 TAP_TAPCELL_ROW_8_30
*142 _09_
*143 _10_
*144 _11_
*145 _12_
*146 _13_
*147 _14_
*148 _15_
*149 _16_
*150 _17_
*151 _18_
*152 _19_
*153 _20_
*154 _21_
*155 _22_
*156 _23_
*157 _24_
*158 _25_
*159 input1
*160 input2
*161 input3
*162 input4
*163 input5
*164 input6
*165 input7
*166 input8
*167 output10
*168 output11
*169 output12
*170 output13
*171 output14
*172 output15
*173 output16
*174 output9

*PORTS
in[0] I
in[1] I
in[2] I
in[3] I
in[4] I
in[5] I
in[6] I
in[7] I
out[0] O
out[1] O
out[2] O
out[3] O
out[4] O
out[5] O
out[6] O
out[7] O

*D_NET *3 0.00111812
*CONN
*P in[0] I
*I *159:A I *D sky130_fd_sc_hd__dlymetal6s2s_1
*CAP
1 in[0] 0.00055906
2 *159:A 0
3 *3:11 0.00055906
4 *3:11 *4:17 0
*RES
1 in[0] *3:11 31.1218 
2 *3:11 *159:A 23 
*END

*D_NET *4 0.000826858
*CONN
*P in[1] I
*I *160:A I *D sky130_fd_sc_hd__buf_1
*CAP
1 in[1] 0.000410342
2 *160:A 0
3 *4:17 0.000410342
4 *4:17 *161:A 0
5 *4:17 *28:8 0
6 *4:17 *36:10 6.17437e-06
7 *3:11 *4:17 0
*RES
1 in[1] *4:17 28.9191 
2 *4:17 *160:A 23 
*END

*D_NET *5 0.000645091
*CONN
*P in[2] I
*I *161:A I *D sky130_fd_sc_hd__buf_1
*CAP
1 in[2] 0.000322545
2 *161:A 0.000322545
3 *161:A *6:17 0
4 *4:17 *161:A 0
*RES
1 in[2] *161:A 49.8062 
*END

*D_NET *6 0.000680056
*CONN
*P in[3] I
*I *162:A I *D sky130_fd_sc_hd__clkbuf_1
*CAP
1 in[3] 0.000340028
2 *162:A 0
3 *6:17 0.000340028
4 *6:17 *7:17 0
5 *161:A *6:17 0
*RES
1 in[3] *6:17 27.1584 
2 *6:17 *162:A 23 
*END

*D_NET *7 0.000675418
*CONN
*P in[4] I
*I *163:A I *D sky130_fd_sc_hd__buf_1
*CAP
1 in[4] 0.000337709
2 *163:A 0
3 *7:17 0.000337709
4 *7:17 *8:17 0
5 *7:17 *36:16 0
6 *6:17 *7:17 0
*RES
1 in[4] *7:17 27.1584 
2 *7:17 *163:A 23 
*END

*D_NET *8 0.00108578
*CONN
*P in[5] I
*I *164:A I *D sky130_fd_sc_hd__buf_1
*CAP
1 in[5] 0.000486068
2 *164:A 0
3 *8:17 0.000486068
4 *8:17 *154:A2 5.69411e-05
5 *8:17 *165:A 0
6 *8:17 *26:12 0
7 *8:17 *36:16 5.67058e-05
8 *8:17 *41:14 0
9 *7:17 *8:17 0
*RES
1 in[5] *8:17 31.3139 
2 *8:17 *164:A 23 
*END

*D_NET *9 0.000621151
*CONN
*P in[6] I
*I *165:A I *D sky130_fd_sc_hd__clkbuf_1
*CAP
1 in[6] 0.000310575
2 *165:A 0.000310575
3 *165:A *10:11 0
4 *8:17 *165:A 0
*RES
1 in[6] *165:A 49.8062 
*END

*D_NET *10 0.00149877
*CONN
*P in[7] I
*I *166:A I *D sky130_fd_sc_hd__buf_1
*CAP
1 in[7] 0.000749387
2 *166:A 0
3 *10:11 0.000749387
4 *10:11 *41:14 0
5 *165:A *10:11 0
*RES
1 in[7] *10:11 34.9954 
2 *10:11 *166:A 23 
*END

*D_NET *11 0.00123536
*CONN
*P out[0] O
*I *174:X O *D sky130_fd_sc_hd__buf_2
*CAP
1 out[0] 0.00029892
2 *174:X 0.000318757
3 *11:8 0.000617678
4 out[0] out[1] 0
*RES
1 *174:X *11:8 44.6596 
2 *11:8 out[0] 9.10133 
*END

*D_NET *12 0.00046494
*CONN
*P out[1] O
*I *167:X O *D sky130_fd_sc_hd__buf_2
*CAP
1 out[1] 0.00023247
2 *167:X 0.00023247
3 out[1] out[2] 0
4 out[0] out[1] 0
*RES
1 *167:X out[1] 47.0789 
*END

*D_NET *13 0.000463691
*CONN
*P out[2] O
*I *168:X O *D sky130_fd_sc_hd__buf_2
*CAP
1 out[2] 0.000231846
2 *168:X 0.000231846
3 out[2] out[3] 0
4 out[2] *29:14 0
5 out[1] out[2] 0
*RES
1 *168:X out[2] 47.0789 
*END

*D_NET *14 0.000625196
*CONN
*P out[3] O
*I *169:X O *D sky130_fd_sc_hd__buf_2
*CAP
1 out[3] 0.000312598
2 *169:X 0.000312598
3 out[3] out[4] 0
4 out[3] *43:12 0
5 out[2] out[3] 0
*RES
1 *169:X out[3] 48.4875 
*END

*D_NET *15 0.000471744
*CONN
*P out[4] O
*I *170:X O *D sky130_fd_sc_hd__buf_2
*CAP
1 out[4] 0.000229454
2 *170:X 0.000229454
3 out[4] out[5] 0
4 out[4] *151:B 4.21594e-06
5 out[4] *23:12 8.62073e-06
6 out[3] out[4] 0
*RES
1 *170:X out[4] 47.0789 
*END

*D_NET *16 0.000647066
*CONN
*P out[5] O
*I *171:X O *D sky130_fd_sc_hd__buf_2
*CAP
1 out[5] 0.000290796
2 *171:X 0.000290796
3 out[5] out[6] 0
4 out[5] *33:12 6.54744e-05
5 out[4] out[5] 0
*RES
1 *171:X out[5] 48.4875 
*END

*D_NET *17 0.000881549
*CONN
*P out[6] O
*I *172:X O *D sky130_fd_sc_hd__buf_2
*CAP
1 out[6] 0.000440774
2 *172:X 0.000440774
3 out[6] out[7] 0
4 out[5] out[6] 0
*RES
1 *172:X out[6] 47.5941 
*END

*D_NET *18 0.00110166
*CONN
*P out[7] O
*I *173:X O *D sky130_fd_sc_hd__clkbuf_4
*CAP
1 out[7] 0.000175108
2 *173:X 0.000375724
3 *18:8 0.000550832
4 out[6] out[7] 0
*RES
1 *173:X *18:8 45.7161 
2 *18:8 out[7] 8.672 
*END

*D_NET *19 0.00710503
*CONN
*I *148:D I *D sky130_fd_sc_hd__or4_1
*I *143:B I *D sky130_fd_sc_hd__nor2_1
*I *147:A3 I *D sky130_fd_sc_hd__o31a_1
*I *157:B1_N I *D sky130_fd_sc_hd__a21boi_1
*I *144:B I *D sky130_fd_sc_hd__and2_1
*I *142:X O *D sky130_fd_sc_hd__or4_2
*CAP
1 *148:D 0.000383205
2 *143:B 0
3 *147:A3 0
4 *157:B1_N 6.45585e-05
5 *144:B 0.000230425
6 *142:X 0.000457871
7 *19:57 0.000481522
8 *19:51 0.00106568
9 *19:42 0.000200953
10 *19:12 0.000434557
11 *19:10 0.000597445
12 *144:B *157:A1 0.000103958
13 *144:B *21:6 0.000142173
14 *144:B *25:18 0.000140908
15 *144:B *41:14 5.50381e-06
16 *148:D *148:A 0.000679949
17 *157:B1_N *25:18 5.3304e-05
18 *157:B1_N *40:23 4.64674e-05
19 *19:10 *142:D 5.79559e-05
20 *19:10 *152:A 1.10658e-05
21 *19:10 *24:14 5.56279e-05
22 *19:10 *28:31 3.20863e-05
23 *19:10 *28:35 0.000230733
24 *19:10 *37:14 0
25 *19:12 *28:35 2.39018e-05
26 *19:12 *40:23 0.000148914
27 *19:51 *148:A 5.3304e-05
28 *19:51 *39:23 5.05308e-05
29 *19:51 *39:30 0.000268343
30 *19:51 *41:31 0.000220607
31 *19:57 *149:A_N 0
32 *19:57 *25:18 1.12487e-05
33 *19:57 *39:38 0.000852231
*RES
1 *142:X *19:10 47.1143 
2 *19:10 *19:12 2.78607 
3 *19:12 *144:B 42.9404 
4 *19:12 *157:B1_N 39.2946 
5 *19:10 *19:42 15 
6 *19:42 *147:A3 23 
7 *19:42 *19:51 4.93 
8 *19:51 *19:57 41.7657 
9 *19:57 *143:B 23 
10 *19:51 *148:D 30.7679 
*END

*D_NET *20 0.00533669
*CONN
*I *145:A I *D sky130_fd_sc_hd__nor2_1
*I *146:B I *D sky130_fd_sc_hd__xnor2_1
*I *143:Y O *D sky130_fd_sc_hd__nor2_1
*CAP
1 *145:A 0
2 *146:B 0
3 *143:Y 0.000324123
4 *20:25 0.000671301
5 *20:14 0.000497978
6 *20:8 0.0014934
7 *20:8 *23:12 5.50049e-05
8 *20:8 *42:10 0.00024754
9 *20:14 *146:A 0.000144494
10 *20:14 *33:6 0.000839682
11 *20:14 *34:16 1.48879e-05
12 *20:25 *149:A_N 0
13 *20:25 *24:14 0.000983975
14 *20:25 *34:16 6.43005e-05
*RES
1 *143:Y *20:8 43.3857 
2 *20:8 *20:14 27.5321 
3 *20:14 *146:B 23 
4 *20:8 *20:25 30.5564 
5 *20:25 *145:A 23 
*END

*D_NET *21 0.00397359
*CONN
*I *145:B I *D sky130_fd_sc_hd__nor2_1
*I *144:X O *D sky130_fd_sc_hd__and2_1
*CAP
1 *145:B 0
2 *144:X 0.000903189
3 *21:12 0.000144291
4 *21:6 0.00104748
5 *21:6 *25:18 1.71761e-05
6 *21:6 *31:6 0.00103502
7 *21:12 *31:14 0.000342134
8 *21:12 *34:16 0.000342134
9 *144:B *21:6 0.000142173
*RES
1 *144:X *21:6 36.485 
2 *21:6 *21:12 34.7229 
3 *21:12 *145:B 23 
*END

*D_NET *22 0.00239346
*CONN
*I *149:A_N I *D sky130_fd_sc_hd__and2b_1
*I *147:X O *D sky130_fd_sc_hd__o31a_1
*CAP
1 *149:A_N 0.000556483
2 *147:X 0.000376275
3 *22:8 0.000932757
4 *22:8 *148:B 0.000527945
5 *19:57 *149:A_N 0
6 *20:25 *149:A_N 0
*RES
1 *147:X *22:8 43.8621 
2 *22:8 *149:A_N 48.005 
*END

*D_NET *23 0.00405862
*CONN
*I *151:B I *D sky130_fd_sc_hd__xor2_1
*I *149:B I *D sky130_fd_sc_hd__and2b_1
*I *148:X O *D sky130_fd_sc_hd__or4_1
*CAP
1 *151:B 0.000345417
2 *149:B 0
3 *148:X 0
4 *23:12 0.000558857
5 *23:6 0.000904273
6 *151:B *32:10 0.000141869
7 *151:B *35:12 0.000428942
8 *151:B *43:12 0
9 *23:12 *33:12 0.000496917
10 *23:12 *35:12 0.000845633
11 *23:12 *42:10 0.000268873
12 out[4] *151:B 4.21594e-06
13 out[4] *23:12 8.62073e-06
14 *20:8 *23:12 5.50049e-05
*RES
1 *148:X *23:6 38 
2 *23:6 *23:12 31.4471 
3 *23:12 *149:B 23 
4 *23:6 *151:B 46.5343 
*END

*D_NET *24 0.00556038
*CONN
*I *150:A I *D sky130_fd_sc_hd__clkbuf_1
*I *149:X O *D sky130_fd_sc_hd__and2b_1
*CAP
1 *150:A 0
2 *149:X 0
3 *24:14 0.000776605
4 *24:6 0.000776605
5 *24:14 *142:A 0
6 *24:14 *152:A 0.000728461
7 *24:14 *31:14 6.7177e-06
8 *24:14 *34:8 0.000875066
9 *24:14 *34:16 0.00135733
10 *19:10 *24:14 5.56279e-05
11 *20:25 *24:14 0.000983975
*RES
1 *149:X *24:6 38 
2 *24:6 *24:14 44.58 
3 *24:14 *150:A 23 
*END

*D_NET *25 0.00420134
*CONN
*I *155:A I *D sky130_fd_sc_hd__and2_1
*I *157:A2 I *D sky130_fd_sc_hd__a21boi_1
*I *153:X O *D sky130_fd_sc_hd__or3_1
*CAP
1 *155:A 0.000228703
2 *157:A2 0
3 *153:X 0.000318016
4 *25:18 0.000990207
5 *25:10 0.00153693
6 *155:A *26:12 0.000102389
7 *155:A *27:8 9.53106e-05
8 *25:10 *153:B 5.56279e-05
9 *25:10 *156:A 0
10 *25:10 *28:16 0
11 *25:10 *37:34 3.83778e-05
12 *25:18 *157:A1 3.22051e-05
13 *25:18 *28:16 0
14 *25:18 *28:31 0
15 *25:18 *28:35 0
16 *25:18 *28:61 0
17 *25:18 *31:6 0.000355962
18 *25:18 *39:38 0.000207219
19 *25:18 *41:31 1.7756e-05
20 *144:B *25:18 0.000140908
21 *157:B1_N *25:18 5.3304e-05
22 *19:57 *25:18 1.12487e-05
23 *21:6 *25:18 1.71761e-05
*RES
1 *153:X *25:10 43.6964 
2 *25:10 *25:18 34.7614 
3 *25:18 *157:A2 23 
4 *25:10 *155:A 42.9093 
*END

*D_NET *26 0.00371975
*CONN
*I *155:B I *D sky130_fd_sc_hd__and2_1
*I *154:Y O *D sky130_fd_sc_hd__o21ai_1
*CAP
1 *155:B 0
2 *154:Y 0
3 *26:12 0.000620463
4 *26:6 0.000620463
5 *26:12 *142:A 0.00030457
6 *26:12 *157:A1 0.000623269
7 *26:12 *36:10 7.38527e-05
8 *26:12 *36:16 5.19255e-05
9 *26:12 *37:10 0.000158229
10 *26:12 *37:14 0.00114984
11 *26:12 *41:14 1.47563e-05
12 *155:A *26:12 0.000102389
13 *8:17 *26:12 0
*RES
1 *154:Y *26:6 38 
2 *26:6 *26:12 35.7557 
3 *26:12 *155:B 23 
*END

*D_NET *27 0.00198822
*CONN
*I *156:A I *D sky130_fd_sc_hd__clkbuf_1
*I *155:X O *D sky130_fd_sc_hd__and2_1
*CAP
1 *156:A 0.000403042
2 *155:X 0.000543413
3 *27:8 0.000946455
4 *156:A *37:34 0
5 *156:A *43:12 0
6 *155:A *27:8 9.53106e-05
7 *25:10 *156:A 0
*RES
1 *155:X *27:8 45.2914 
2 *27:8 *156:A 45.54 
*END

*D_NET *28 0.00931059
*CONN
*I *153:C I *D sky130_fd_sc_hd__or3_1
*I *152:B I *D sky130_fd_sc_hd__xor2_1
*I *158:A I *D sky130_fd_sc_hd__clkbuf_1
*I *154:A2 I *D sky130_fd_sc_hd__o21ai_1
*I *142:D I *D sky130_fd_sc_hd__or4_2
*I *159:X O *D sky130_fd_sc_hd__dlymetal6s2s_1
*CAP
1 *153:C 0.000176974
2 *152:B 0
3 *158:A 0.000739565
4 *154:A2 0.000392986
5 *142:D 0.000332836
6 *159:X 0.000132326
7 *28:61 0.000729209
8 *28:35 0.00173943
9 *28:31 0.00143571
10 *28:16 0.000947673
11 *28:12 0.000872473
12 *28:8 0.000312607
13 *142:D *142:A 0.000137368
14 *142:D *152:A 7.12002e-05
15 *153:C *153:B 0.000146727
16 *154:A2 *40:8 1.52609e-05
17 *28:12 *153:B 0.000227027
18 *28:16 *37:10 0
19 *28:16 *37:14 0
20 *28:16 *37:34 0
21 *28:31 *37:14 0
22 *28:35 *146:A 0.000145969
23 *28:35 *39:38 0
24 *28:35 *40:23 0.000315259
25 *28:35 *41:31 3.83778e-05
26 *28:61 *43:12 0
27 *4:17 *28:8 0
28 *8:17 *154:A2 5.69411e-05
29 *19:10 *142:D 5.79559e-05
30 *19:10 *28:31 3.20863e-05
31 *19:10 *28:35 0.000230733
32 *19:12 *28:35 2.39018e-05
33 *25:10 *28:16 0
34 *25:18 *28:16 0
35 *25:18 *28:31 0
36 *25:18 *28:35 0
37 *25:18 *28:61 0
*RES
1 *159:X *28:8 40.61 
2 *28:8 *28:12 19.4329 
3 *28:12 *28:16 24.1246 
4 *28:16 *142:D 43.3754 
5 *28:16 *28:31 1.72964 
6 *28:31 *28:35 28.1743 
7 *28:35 *154:A2 27.9093 
8 *28:35 *158:A 34.9729 
9 *28:31 *28:61 39.5493 
10 *28:61 *152:B 38 
11 *28:12 *153:C 26.9564 
*END

*D_NET *29 0.00214088
*CONN
*I *167:A I *D sky130_fd_sc_hd__buf_2
*I *152:X O *D sky130_fd_sc_hd__xor2_1
*CAP
1 *167:A 0
2 *152:X 0.000147754
3 *29:14 0.000522226
4 *29:8 0.00066998
5 *29:8 *31:14 0.000182832
6 *29:8 *34:8 3.7122e-06
7 *29:14 *30:10 0.000383494
8 *29:14 *43:12 0.000230884
9 out[2] *29:14 0
*RES
1 *152:X *29:8 41.0036 
2 *29:8 *29:14 27.6357 
3 *29:14 *167:A 23 
*END

*D_NET *30 0.00194699
*CONN
*I *168:A I *D sky130_fd_sc_hd__buf_2
*I *156:X O *D sky130_fd_sc_hd__clkbuf_1
*CAP
1 *168:A 0.000128808
2 *156:X 0.00044685
3 *30:10 0.000575658
4 *30:10 *43:12 0.000412178
5 *29:14 *30:10 0.000383494
*RES
1 *156:X *30:10 47.5079 
2 *30:10 *168:A 40.0507 
*END

*D_NET *31 0.00464767
*CONN
*I *169:A I *D sky130_fd_sc_hd__buf_2
*I *157:Y O *D sky130_fd_sc_hd__a21boi_1
*CAP
1 *169:A 0
2 *157:Y 0.00043458
3 *31:14 0.000473458
4 *31:6 0.000908037
5 *31:14 *34:16 0.00020134
6 *31:14 *42:16 0.000613786
7 *31:14 *43:12 9.3813e-05
8 *21:6 *31:6 0.00103502
9 *21:12 *31:14 0.000342134
10 *24:14 *31:14 6.7177e-06
11 *25:18 *31:6 0.000355962
12 *29:8 *31:14 0.000182832
*RES
1 *157:Y *31:6 35.0557 
2 *31:6 *31:14 44.1893 
3 *31:14 *169:A 23 
*END

*D_NET *32 0.00114424
*CONN
*I *170:A I *D sky130_fd_sc_hd__buf_2
*I *145:Y O *D sky130_fd_sc_hd__nor2_1
*CAP
1 *170:A 0
2 *145:Y 0.000501185
3 *32:10 0.000501185
4 *151:B *32:10 0.000141869
*RES
1 *145:Y *32:10 44.3386 
2 *32:10 *170:A 38 
*END

*D_NET *33 0.00346204
*CONN
*I *171:A I *D sky130_fd_sc_hd__buf_2
*I *146:Y O *D sky130_fd_sc_hd__xnor2_1
*CAP
1 *171:A 0
2 *146:Y 0.000702656
3 *33:12 0.000280996
4 *33:6 0.000983652
5 *33:6 *35:12 2.93845e-05
6 *33:12 *35:12 6.32792e-05
7 out[5] *33:12 6.54744e-05
8 *20:14 *33:6 0.000839682
9 *23:12 *33:12 0.000496917
*RES
1 *146:Y *33:6 37.4379 
2 *33:6 *33:12 38.2443 
3 *33:12 *171:A 23 
*END

*D_NET *34 0.0061368
*CONN
*I *172:A I *D sky130_fd_sc_hd__buf_2
*I *150:X O *D sky130_fd_sc_hd__clkbuf_1
*CAP
1 *172:A 0
2 *150:X 0.000658796
3 *34:16 0.000861177
4 *34:8 0.00151997
5 *34:16 *35:12 0
6 *34:16 *42:16 0.00023809
7 *20:14 *34:16 1.48879e-05
8 *20:25 *34:16 6.43005e-05
9 *21:12 *34:16 0.000342134
10 *24:14 *34:8 0.000875066
11 *24:14 *34:16 0.00135733
12 *29:8 *34:8 3.7122e-06
13 *31:14 *34:16 0.00020134
*RES
1 *150:X *34:8 48.15 
2 *34:8 *34:16 38.6971 
3 *34:16 *172:A 23 
*END

*D_NET *35 0.00291785
*CONN
*I *173:A I *D sky130_fd_sc_hd__clkbuf_4
*I *151:X O *D sky130_fd_sc_hd__xor2_1
*CAP
1 *173:A 0
2 *151:X 0
3 *35:12 0.000633837
4 *35:6 0.000633837
5 *35:12 *42:16 0
6 *35:12 *43:12 0.000282936
7 *151:B *35:12 0.000428942
8 *23:12 *35:12 0.000845633
9 *33:6 *35:12 2.93845e-05
10 *33:12 *35:12 6.32792e-05
11 *34:16 *35:12 0
*RES
1 *151:X *35:6 38 
2 *35:6 *35:12 34.7821 
3 *35:12 *173:A 23 
*END

*D_NET *36 0.00628025
*CONN
*I *153:B I *D sky130_fd_sc_hd__or3_1
*I *152:A I *D sky130_fd_sc_hd__xor2_1
*I *142:C I *D sky130_fd_sc_hd__or4_2
*I *154:A1 I *D sky130_fd_sc_hd__o21ai_1
*I *160:X O *D sky130_fd_sc_hd__buf_1
*CAP
1 *153:B 0.000371525
2 *152:A 0.000467768
3 *142:C 0
4 *154:A1 0
5 *160:X 0
6 *36:33 0.00063442
7 *36:16 0.000600487
8 *36:10 0.00123702
9 *36:4 0.00084141
10 *152:A *142:A 4.3198e-05
11 *36:10 *142:A 4.6318e-06
12 *36:10 *37:10 0
13 *36:16 *142:A 0.000149341
14 *36:16 *157:A1 0.00023335
15 *36:16 *39:12 0.000171906
16 *36:33 *142:A 9.64221e-05
17 *142:D *152:A 7.12002e-05
18 *153:C *153:B 0.000146727
19 *4:17 *36:10 6.17437e-06
20 *7:17 *36:16 0
21 *8:17 *36:16 5.67058e-05
22 *19:10 *152:A 1.10658e-05
23 *24:14 *152:A 0.000728461
24 *25:10 *153:B 5.56279e-05
25 *26:12 *36:10 7.38527e-05
26 *26:12 *36:16 5.19255e-05
27 *28:12 *153:B 0.000227027
*RES
1 *160:X *36:4 23 
2 *36:4 *36:10 23.99 
3 *36:10 *36:16 29.8521 
4 *36:16 *154:A1 23 
5 *36:10 *36:33 18.335 
6 *36:33 *142:C 23 
7 *36:33 *152:A 35.2214 
8 *36:4 *153:B 31.265 
*END

*D_NET *37 0.0049435
*CONN
*I *153:A I *D sky130_fd_sc_hd__or3_1
*I *142:B I *D sky130_fd_sc_hd__or4_2
*I *154:B1 I *D sky130_fd_sc_hd__o21ai_1
*I *161:X O *D sky130_fd_sc_hd__buf_1
*CAP
1 *153:A 0
2 *142:B 0
3 *154:B1 0
4 *161:X 9.01449e-05
5 *37:34 0.000720333
6 *37:14 0.000486629
7 *37:10 0.000758689
8 *37:6 0.00108254
9 *37:14 *41:14 0.000458727
10 *156:A *37:34 0
11 *19:10 *37:14 0
12 *25:10 *37:34 3.83778e-05
13 *26:12 *37:10 0.000158229
14 *26:12 *37:14 0.00114984
15 *28:16 *37:10 0
16 *28:16 *37:14 0
17 *28:16 *37:34 0
18 *28:31 *37:14 0
19 *36:10 *37:10 0
*RES
1 *161:X *37:6 24.0979 
2 *37:6 *37:10 20.7793 
3 *37:10 *37:14 30.2871 
4 *37:14 *154:B1 23 
5 *37:10 *142:B 38 
6 *37:6 *37:34 39.1971 
7 *37:34 *153:A 23 
*END

*D_NET *38 0.00304283
*CONN
*I *142:A I *D sky130_fd_sc_hd__or4_2
*I *157:A1 I *D sky130_fd_sc_hd__a21boi_1
*I *162:X O *D sky130_fd_sc_hd__clkbuf_1
*CAP
1 *142:A 0.00019603
2 *157:A1 0.000376392
3 *162:X 0
4 *38:6 0.000572421
5 *157:A1 *39:12 0.000169674
6 *142:D *142:A 0.000137368
7 *144:B *157:A1 0.000103958
8 *152:A *142:A 4.3198e-05
9 *24:14 *142:A 0
10 *25:18 *157:A1 3.22051e-05
11 *26:12 *142:A 0.00030457
12 *26:12 *157:A1 0.000623269
13 *36:10 *142:A 4.6318e-06
14 *36:16 *142:A 0.000149341
15 *36:16 *157:A1 0.00023335
16 *36:33 *142:A 9.64221e-05
*RES
1 *162:X *38:6 38 
2 *38:6 *157:A1 48.7714 
3 *38:6 *142:A 44.09 
*END

*D_NET *39 0.00616788
*CONN
*I *148:A I *D sky130_fd_sc_hd__or4_1
*I *143:A I *D sky130_fd_sc_hd__nor2_1
*I *147:A1 I *D sky130_fd_sc_hd__o31a_1
*I *144:A I *D sky130_fd_sc_hd__and2_1
*I *163:X O *D sky130_fd_sc_hd__buf_1
*CAP
1 *148:A 0.000264493
2 *143:A 0
3 *147:A1 0
4 *144:A 0
5 *163:X 0
6 *39:38 0.000439521
7 *39:30 0.000780942
8 *39:23 0.000409893
9 *39:12 9.65606e-05
10 *39:4 0.000429525
11 *148:A *41:31 0.000761682
12 *39:23 *148:B 5.3304e-05
13 *39:23 *41:14 0.000188934
14 *39:23 *41:31 9.77922e-06
15 *39:30 *148:B 4.03448e-05
16 *39:30 *41:31 0.00018304
17 *39:38 *146:A 0
18 *39:38 *42:10 5.67058e-05
19 *148:D *148:A 0.000679949
20 *157:A1 *39:12 0.000169674
21 *19:51 *148:A 5.3304e-05
22 *19:51 *39:23 5.05308e-05
23 *19:51 *39:30 0.000268343
24 *19:57 *39:38 0.000852231
25 *25:18 *39:38 0.000207219
26 *28:35 *39:38 0
27 *36:16 *39:12 0.000171906
*RES
1 *163:X *39:4 23 
2 *39:4 *39:12 32.8793 
3 *39:12 *144:A 23 
4 *39:4 *39:23 5.90357 
5 *39:23 *147:A1 23 
6 *39:23 *39:30 3.00357 
7 *39:30 *39:38 42.035 
8 *39:38 *143:A 23 
9 *39:30 *148:A 32.6736 
*END

*D_NET *40 0.00513028
*CONN
*I *148:B I *D sky130_fd_sc_hd__or4_1
*I *147:A2 I *D sky130_fd_sc_hd__o31a_1
*I *146:A I *D sky130_fd_sc_hd__xnor2_1
*I *164:X O *D sky130_fd_sc_hd__buf_1
*CAP
1 *148:B 0.000456079
2 *147:A2 0
3 *146:A 0.000608025
4 *164:X 0.000159604
5 *40:23 0.000625441
6 *40:8 0.000936992
7 *148:B *41:31 0.000906175
8 *154:A2 *40:8 1.52609e-05
9 *157:B1_N *40:23 4.64674e-05
10 *19:12 *40:23 0.000148914
11 *20:14 *146:A 0.000144494
12 *22:8 *148:B 0.000527945
13 *28:35 *146:A 0.000145969
14 *28:35 *40:23 0.000315259
15 *39:23 *148:B 5.3304e-05
16 *39:30 *148:B 4.03448e-05
17 *39:38 *146:A 0
*RES
1 *164:X *40:8 40.0507 
2 *40:8 *146:A 49.7036 
3 *40:8 *40:23 19.3707 
4 *40:23 *147:A2 23 
5 *40:23 *148:B 35.0764 
*END

*D_NET *41 0.00568709
*CONN
*I *148:C I *D sky130_fd_sc_hd__or4_1
*I *147:B1 I *D sky130_fd_sc_hd__o31a_1
*I *165:X O *D sky130_fd_sc_hd__clkbuf_1
*CAP
1 *148:C 0
2 *147:B1 0
3 *165:X 0.0001207
4 *41:31 0.000532634
5 *41:14 0.00132018
6 *41:8 0.000908241
7 *144:B *41:14 5.50381e-06
8 *148:A *41:31 0.000761682
9 *148:B *41:31 0.000906175
10 *8:17 *41:14 0
11 *10:11 *41:14 0
12 *19:51 *41:31 0.000220607
13 *25:18 *41:31 1.7756e-05
14 *26:12 *41:14 1.47563e-05
15 *28:35 *41:31 3.83778e-05
16 *37:14 *41:14 0.000458727
17 *39:23 *41:14 0.000188934
18 *39:23 *41:31 9.77922e-06
19 *39:30 *41:31 0.00018304
*RES
1 *165:X *41:8 39.5743 
2 *41:8 *41:14 30.5771 
3 *41:14 *147:B1 23 
4 *41:14 *41:31 45.2043 
5 *41:31 *148:C 23 
*END

*D_NET *42 0.00526422
*CONN
*I *151:A I *D sky130_fd_sc_hd__xor2_1
*I *166:X O *D sky130_fd_sc_hd__buf_1
*CAP
1 *151:A 0
2 *166:X 0.00092557
3 *42:16 0.000536321
4 *42:10 0.00146189
5 *42:16 *43:12 0.000915446
6 *20:8 *42:10 0.00024754
7 *23:12 *42:10 0.000268873
8 *31:14 *42:16 0.000613786
9 *34:16 *42:16 0.00023809
10 *35:12 *42:16 0
11 *39:38 *42:10 5.67058e-05
*RES
1 *166:X *42:10 39.8614 
2 *42:10 *42:16 47.4 
3 *42:16 *151:A 23 
*END

*D_NET *43 0.00373865
*CONN
*I *174:A I *D sky130_fd_sc_hd__buf_2
*I *158:X O *D sky130_fd_sc_hd__clkbuf_1
*CAP
1 *174:A 0
2 *158:X 0
3 *43:12 0.000901695
4 *43:6 0.000901695
5 out[3] *43:12 0
6 *151:B *43:12 0
7 *156:A *43:12 0
8 *28:61 *43:12 0
9 *29:14 *43:12 0.000230884
10 *30:10 *43:12 0.000412178
11 *31:14 *43:12 9.3813e-05
12 *35:12 *43:12 0.000282936
13 *42:16 *43:12 0.000915446
*RES
1 *158:X *43:6 38 
2 *43:6 *43:12 41.4729 
3 *43:12 *174:A 23 
*END
