*SPEF "ieee 1481-1999"
*DESIGN "ZeroToFiveCounter"
*DATE "14:07:28 Sunday May 25, 2025"
*VENDOR "The OpenROAD Project"
*PROGRAM "OpenROAD"
*VERSION "b16bda7e82721d10566ff7e2b68f1ff0be9f9e38"
*DESIGN_FLOW "NAME_SCOPE LOCAL" "PIN_CAP NONE"
*DIVIDER /
*DELIMITER :
*BUS_DELIMITER []
*T_UNIT 1 NS
*C_UNIT 1 PF
*R_UNIT 1 OHM
*L_UNIT 1 HENRY

*NAME_MAP
*3 net10
*4 net11
*5 net12
*6 net13
*7 net14
*8 net15
*9 net16
*10 net9
*11 clk
*12 rst
*13 seg[0]
*14 seg[1]
*15 seg[2]
*16 seg[3]
*17 seg[4]
*18 seg[5]
*19 seg[6]
*20 _000_
*21 _001_
*22 _002_
*23 _003_
*24 _004_
*25 _005_
*26 _006_
*27 _007_
*28 _008_
*29 _009_
*30 _010_
*31 _011_
*32 _012_
*33 _013_
*34 _014_
*35 _015_
*36 _016_
*37 _017_
*38 _018_
*39 _019_
*40 _020_
*41 _021_
*42 _022_
*43 _023_
*44 _024_
*45 _025_
*46 _026_
*47 _027_
*48 _028_
*49 _029_
*50 _030_
*51 _031_
*52 _032_
*53 _033_
*54 _034_
*55 _035_
*56 _036_
*57 _037_
*58 _038_
*59 _039_
*60 _040_
*61 _041_
*62 _042_
*63 _043_
*64 _044_
*65 _045_
*66 _046_
*67 _047_
*68 _048_
*69 _049_
*70 _050_
*71 _051_
*72 _052_
*73 _053_
*74 _054_
*75 _055_
*76 _056_
*77 _057_
*78 _058_
*79 _059_
*80 _060_
*81 _061_
*82 _062_
*83 _063_
*84 _064_
*85 _065_
*86 _066_
*87 _067_
*88 _068_
*89 _069_
*90 _070_
*91 _071_
*92 _072_
*93 _073_
*94 _074_
*95 _075_
*96 _076_
*97 _077_
*98 _078_
*99 _079_
*100 _080_
*101 _081_
*102 _082_
*103 _083_
*104 _084_
*105 _085_
*106 _086_
*107 _087_
*108 _088_
*109 _089_
*110 _090_
*111 _091_
*112 _092_
*113 _093_
*114 _094_
*115 _095_
*116 _096_
*117 _097_
*118 _098_
*119 _099_
*120 _100_
*121 _101_
*122 _102_
*123 _103_
*124 _104_
*125 _105_
*126 _106_
*127 _107_
*128 _108_
*129 _109_
*130 _110_
*131 _111_
*132 _112_
*133 _113_
*134 _114_
*135 _115_
*136 _116_
*137 _117_
*138 _118_
*139 _119_
*140 _120_
*141 _121_
*142 _122_
*143 _123_
*144 _124_
*145 _125_
*146 _126_
*147 _127_
*148 _128_
*149 _129_
*150 _130_
*151 _131_
*152 _132_
*153 _133_
*154 _134_
*155 _135_
*156 _136_
*157 _137_
*158 _138_
*159 _139_
*160 _140_
*161 _141_
*162 _142_
*163 _143_
*164 _144_
*165 _145_
*166 _146_
*167 _147_
*168 _148_
*169 _149_
*170 _150_
*171 _151_
*172 _152_
*173 _153_
*174 _154_
*175 _155_
*176 _156_
*177 _157_
*178 _158_
*179 _159_
*180 _160_
*181 _161_
*182 clknet_0_clk
*183 clknet_2_0__leaf_clk
*184 clknet_2_1__leaf_clk
*185 clknet_2_2__leaf_clk
*186 clknet_2_3__leaf_clk
*187 decoder\.digit\[0\]
*188 decoder\.digit\[1\]
*189 decoder\.digit\[2\]
*190 decoder\.digit\[3\]
*191 net1
*192 net2
*193 net3
*194 net4
*195 net5
*196 net6
*197 net7
*198 net8
*199 one_second_counter\[0\]
*200 one_second_counter\[10\]
*201 one_second_counter\[11\]
*202 one_second_counter\[12\]
*203 one_second_counter\[13\]
*204 one_second_counter\[14\]
*205 one_second_counter\[15\]
*206 one_second_counter\[16\]
*207 one_second_counter\[17\]
*208 one_second_counter\[18\]
*209 one_second_counter\[19\]
*210 one_second_counter\[1\]
*211 one_second_counter\[20\]
*212 one_second_counter\[21\]
*213 one_second_counter\[22\]
*214 one_second_counter\[23\]
*215 one_second_counter\[24\]
*216 one_second_counter\[25\]
*217 one_second_counter\[26\]
*218 one_second_counter\[2\]
*219 one_second_counter\[3\]
*220 one_second_counter\[4\]
*221 one_second_counter\[5\]
*222 one_second_counter\[6\]
*223 one_second_counter\[7\]
*224 one_second_counter\[8\]
*225 one_second_counter\[9\]
*226 one_second_enable
*227 ANTENNA_1
*228 ANTENNA_2
*229 ANTENNA_3
*230 ANTENNA_4
*231 ANTENNA_5
*232 ANTENNA_6
*233 FILLER_0_0_108
*234 FILLER_0_0_116
*235 FILLER_0_0_14
*236 FILLER_0_0_20
*237 FILLER_0_0_27
*238 FILLER_0_0_33
*239 FILLER_0_0_39
*240 FILLER_0_0_51
*241 FILLER_0_0_55
*242 FILLER_0_0_6
*243 FILLER_0_0_65
*244 FILLER_0_0_73
*245 FILLER_0_0_80
*246 FILLER_0_0_85
*247 FILLER_0_0_89
*248 FILLER_0_0_96
*249 FILLER_0_10_110
*250 FILLER_0_10_122
*251 FILLER_0_10_20
*252 FILLER_0_10_27
*253 FILLER_0_10_29
*254 FILLER_0_10_3
*255 FILLER_0_10_37
*256 FILLER_0_10_62
*257 FILLER_0_10_74
*258 FILLER_0_10_8
*259 FILLER_0_10_82
*260 FILLER_0_10_94
*261 FILLER_0_11_108
*262 FILLER_0_11_118
*263 FILLER_0_11_15
*264 FILLER_0_11_19
*265 FILLER_0_11_27
*266 FILLER_0_11_3
*267 FILLER_0_11_55
*268 FILLER_0_11_57
*269 FILLER_0_11_69
*270 FILLER_0_11_76
*271 FILLER_0_12_107
*272 FILLER_0_12_119
*273 FILLER_0_12_12
*274 FILLER_0_12_29
*275 FILLER_0_12_3
*276 FILLER_0_12_36
*277 FILLER_0_12_47
*278 FILLER_0_12_53
*279 FILLER_0_12_60
*280 FILLER_0_12_68
*281 FILLER_0_12_80
*282 FILLER_0_12_85
*283 FILLER_0_12_97
*284 FILLER_0_13_103
*285 FILLER_0_13_11
*286 FILLER_0_13_110
*287 FILLER_0_13_113
*288 FILLER_0_13_3
*289 FILLER_0_13_37
*290 FILLER_0_13_44
*291 FILLER_0_13_50
*292 FILLER_0_13_82
*293 FILLER_0_14_105
*294 FILLER_0_14_117
*295 FILLER_0_14_20
*296 FILLER_0_14_29
*297 FILLER_0_14_43
*298 FILLER_0_14_55
*299 FILLER_0_14_59
*300 FILLER_0_14_6
*301 FILLER_0_14_68
*302 FILLER_0_14_85
*303 FILLER_0_14_93
*304 FILLER_0_15_100
*305 FILLER_0_15_106
*306 FILLER_0_15_110
*307 FILLER_0_15_113
*308 FILLER_0_15_16
*309 FILLER_0_15_20
*310 FILLER_0_15_3
*311 FILLER_0_15_32
*312 FILLER_0_15_45
*313 FILLER_0_15_53
*314 FILLER_0_15_8
*315 FILLER_0_15_80
*316 FILLER_0_15_88
*317 FILLER_0_15_96
*318 FILLER_0_16_117
*319 FILLER_0_16_121
*320 FILLER_0_16_29
*321 FILLER_0_16_39
*322 FILLER_0_16_46
*323 FILLER_0_16_78
*324 FILLER_0_16_83
*325 FILLER_0_17_101
*326 FILLER_0_17_109
*327 FILLER_0_17_113
*328 FILLER_0_17_23
*329 FILLER_0_17_31
*330 FILLER_0_17_57
*331 FILLER_0_18_114
*332 FILLER_0_18_122
*333 FILLER_0_18_13
*334 FILLER_0_18_25
*335 FILLER_0_18_33
*336 FILLER_0_18_45
*337 FILLER_0_18_85
*338 FILLER_0_18_89
*339 FILLER_0_19_110
*340 FILLER_0_19_116
*341 FILLER_0_19_124
*342 FILLER_0_19_16
*343 FILLER_0_19_20
*344 FILLER_0_19_27
*345 FILLER_0_19_3
*346 FILLER_0_19_35
*347 FILLER_0_19_41
*348 FILLER_0_19_53
*349 FILLER_0_19_64
*350 FILLER_0_19_9
*351 FILLER_0_1_104
*352 FILLER_0_1_113
*353 FILLER_0_1_117
*354 FILLER_0_1_15
*355 FILLER_0_1_3
*356 FILLER_0_1_41
*357 FILLER_0_1_55
*358 FILLER_0_1_57
*359 FILLER_0_1_69
*360 FILLER_0_1_80
*361 FILLER_0_1_92
*362 FILLER_0_20_15
*363 FILLER_0_20_27
*364 FILLER_0_20_29
*365 FILLER_0_20_3
*366 FILLER_0_20_41
*367 FILLER_0_20_53
*368 FILLER_0_20_62
*369 FILLER_0_20_92
*370 FILLER_0_21_105
*371 FILLER_0_21_111
*372 FILLER_0_21_113
*373 FILLER_0_21_18
*374 FILLER_0_21_32
*375 FILLER_0_21_44
*376 FILLER_0_21_54
*377 FILLER_0_21_6
*378 FILLER_0_21_60
*379 FILLER_0_21_72
*380 FILLER_0_21_79
*381 FILLER_0_22_109
*382 FILLER_0_22_121
*383 FILLER_0_22_15
*384 FILLER_0_22_3
*385 FILLER_0_22_38
*386 FILLER_0_22_46
*387 FILLER_0_22_71
*388 FILLER_0_22_83
*389 FILLER_0_22_85
*390 FILLER_0_22_97
*391 FILLER_0_23_103
*392 FILLER_0_23_108
*393 FILLER_0_23_113
*394 FILLER_0_23_12
*395 FILLER_0_23_19
*396 FILLER_0_23_27
*397 FILLER_0_23_3
*398 FILLER_0_23_34
*399 FILLER_0_23_55
*400 FILLER_0_23_57
*401 FILLER_0_23_64
*402 FILLER_0_23_75
*403 FILLER_0_23_79
*404 FILLER_0_24_10
*405 FILLER_0_24_119
*406 FILLER_0_24_22
*407 FILLER_0_24_29
*408 FILLER_0_24_3
*409 FILLER_0_24_33
*410 FILLER_0_24_41
*411 FILLER_0_24_45
*412 FILLER_0_24_70
*413 FILLER_0_24_82
*414 FILLER_0_24_85
*415 FILLER_0_24_97
*416 FILLER_0_25_100
*417 FILLER_0_25_108
*418 FILLER_0_25_113
*419 FILLER_0_25_15
*420 FILLER_0_25_27
*421 FILLER_0_25_3
*422 FILLER_0_25_36
*423 FILLER_0_25_41
*424 FILLER_0_25_48
*425 FILLER_0_25_57
*426 FILLER_0_25_69
*427 FILLER_0_25_81
*428 FILLER_0_25_93
*429 FILLER_0_26_103
*430 FILLER_0_26_115
*431 FILLER_0_26_121
*432 FILLER_0_26_19
*433 FILLER_0_26_23
*434 FILLER_0_26_27
*435 FILLER_0_26_29
*436 FILLER_0_26_41
*437 FILLER_0_26_7
*438 FILLER_0_26_71
*439 FILLER_0_26_83
*440 FILLER_0_26_88
*441 FILLER_0_26_96
*442 FILLER_0_27_103
*443 FILLER_0_27_11
*444 FILLER_0_27_111
*445 FILLER_0_27_113
*446 FILLER_0_27_121
*447 FILLER_0_27_23
*448 FILLER_0_27_3
*449 FILLER_0_27_35
*450 FILLER_0_27_47
*451 FILLER_0_27_55
*452 FILLER_0_27_57
*453 FILLER_0_27_87
*454 FILLER_0_27_99
*455 FILLER_0_28_112
*456 FILLER_0_28_124
*457 FILLER_0_28_15
*458 FILLER_0_28_27
*459 FILLER_0_28_29
*460 FILLER_0_28_3
*461 FILLER_0_28_41
*462 FILLER_0_28_53
*463 FILLER_0_28_88
*464 FILLER_0_29_100
*465 FILLER_0_29_104
*466 FILLER_0_29_108
*467 FILLER_0_29_113
*468 FILLER_0_29_15
*469 FILLER_0_29_27
*470 FILLER_0_29_3
*471 FILLER_0_29_33
*472 FILLER_0_29_41
*473 FILLER_0_29_47
*474 FILLER_0_29_52
*475 FILLER_0_29_57
*476 FILLER_0_29_65
*477 FILLER_0_29_94
*478 FILLER_0_2_100
*479 FILLER_0_2_112
*480 FILLER_0_2_121
*481 FILLER_0_2_15
*482 FILLER_0_2_27
*483 FILLER_0_2_29
*484 FILLER_0_2_3
*485 FILLER_0_2_33
*486 FILLER_0_2_42
*487 FILLER_0_2_47
*488 FILLER_0_2_59
*489 FILLER_0_2_71
*490 FILLER_0_2_83
*491 FILLER_0_2_85
*492 FILLER_0_30_109
*493 FILLER_0_30_124
*494 FILLER_0_30_26
*495 FILLER_0_30_29
*496 FILLER_0_30_3
*497 FILLER_0_30_37
*498 FILLER_0_30_60
*499 FILLER_0_30_72
*500 FILLER_0_30_85
*501 FILLER_0_30_93
*502 FILLER_0_30_97
*503 FILLER_0_31_104
*504 FILLER_0_31_113
*505 FILLER_0_31_121
*506 FILLER_0_31_18
*507 FILLER_0_31_24
*508 FILLER_0_31_29
*509 FILLER_0_31_3
*510 FILLER_0_31_41
*511 FILLER_0_31_50
*512 FILLER_0_31_57
*513 FILLER_0_31_69
*514 FILLER_0_31_81
*515 FILLER_0_31_85
*516 FILLER_0_31_97
*517 FILLER_0_3_110
*518 FILLER_0_3_118
*519 FILLER_0_3_124
*520 FILLER_0_3_15
*521 FILLER_0_3_27
*522 FILLER_0_3_3
*523 FILLER_0_3_31
*524 FILLER_0_3_36
*525 FILLER_0_3_44
*526 FILLER_0_3_57
*527 FILLER_0_3_68
*528 FILLER_0_3_81
*529 FILLER_0_3_93
*530 FILLER_0_4_124
*531 FILLER_0_4_26
*532 FILLER_0_4_29
*533 FILLER_0_4_33
*534 FILLER_0_4_39
*535 FILLER_0_4_46
*536 FILLER_0_4_58
*537 FILLER_0_4_70
*538 FILLER_0_4_76
*539 FILLER_0_4_80
*540 FILLER_0_4_85
*541 FILLER_0_4_97
*542 FILLER_0_5_111
*543 FILLER_0_5_113
*544 FILLER_0_5_117
*545 FILLER_0_5_120
*546 FILLER_0_5_20
*547 FILLER_0_5_3
*548 FILLER_0_5_32
*549 FILLER_0_5_36
*550 FILLER_0_5_44
*551 FILLER_0_5_50
*552 FILLER_0_5_54
*553 FILLER_0_5_57
*554 FILLER_0_5_69
*555 FILLER_0_5_8
*556 FILLER_0_5_81
*557 FILLER_0_5_93
*558 FILLER_0_6_105
*559 FILLER_0_6_109
*560 FILLER_0_6_113
*561 FILLER_0_6_122
*562 FILLER_0_6_15
*563 FILLER_0_6_27
*564 FILLER_0_6_29
*565 FILLER_0_6_3
*566 FILLER_0_6_41
*567 FILLER_0_6_49
*568 FILLER_0_6_71
*569 FILLER_0_6_83
*570 FILLER_0_7_10
*571 FILLER_0_7_105
*572 FILLER_0_7_111
*573 FILLER_0_7_113
*574 FILLER_0_7_120
*575 FILLER_0_7_124
*576 FILLER_0_7_22
*577 FILLER_0_7_3
*578 FILLER_0_7_30
*579 FILLER_0_7_40
*580 FILLER_0_7_52
*581 FILLER_0_7_57
*582 FILLER_0_7_69
*583 FILLER_0_7_81
*584 FILLER_0_7_93
*585 FILLER_0_8_105
*586 FILLER_0_8_117
*587 FILLER_0_8_18
*588 FILLER_0_8_26
*589 FILLER_0_8_29
*590 FILLER_0_8_44
*591 FILLER_0_8_6
*592 FILLER_0_8_62
*593 FILLER_0_8_77
*594 FILLER_0_8_83
*595 FILLER_0_9_100
*596 FILLER_0_9_109
*597 FILLER_0_9_11
*598 FILLER_0_9_113
*599 FILLER_0_9_23
*600 FILLER_0_9_3
*601 FILLER_0_9_34
*602 FILLER_0_9_57
*603 FILLER_0_9_70
*604 FILLER_0_9_82
*605 FILLER_0_9_94
*606 PHY_EDGE_ROW_0_Left_32
*607 PHY_EDGE_ROW_0_Right_0
*608 PHY_EDGE_ROW_10_Left_42
*609 PHY_EDGE_ROW_10_Right_10
*610 PHY_EDGE_ROW_11_Left_43
*611 PHY_EDGE_ROW_11_Right_11
*612 PHY_EDGE_ROW_12_Left_44
*613 PHY_EDGE_ROW_12_Right_12
*614 PHY_EDGE_ROW_13_Left_45
*615 PHY_EDGE_ROW_13_Right_13
*616 PHY_EDGE_ROW_14_Left_46
*617 PHY_EDGE_ROW_14_Right_14
*618 PHY_EDGE_ROW_15_Left_47
*619 PHY_EDGE_ROW_15_Right_15
*620 PHY_EDGE_ROW_16_Left_48
*621 PHY_EDGE_ROW_16_Right_16
*622 PHY_EDGE_ROW_17_Left_49
*623 PHY_EDGE_ROW_17_Right_17
*624 PHY_EDGE_ROW_18_Left_50
*625 PHY_EDGE_ROW_18_Right_18
*626 PHY_EDGE_ROW_19_Left_51
*627 PHY_EDGE_ROW_19_Right_19
*628 PHY_EDGE_ROW_1_Left_33
*629 PHY_EDGE_ROW_1_Right_1
*630 PHY_EDGE_ROW_20_Left_52
*631 PHY_EDGE_ROW_20_Right_20
*632 PHY_EDGE_ROW_21_Left_53
*633 PHY_EDGE_ROW_21_Right_21
*634 PHY_EDGE_ROW_22_Left_54
*635 PHY_EDGE_ROW_22_Right_22
*636 PHY_EDGE_ROW_23_Left_55
*637 PHY_EDGE_ROW_23_Right_23
*638 PHY_EDGE_ROW_24_Left_56
*639 PHY_EDGE_ROW_24_Right_24
*640 PHY_EDGE_ROW_25_Left_57
*641 PHY_EDGE_ROW_25_Right_25
*642 PHY_EDGE_ROW_26_Left_58
*643 PHY_EDGE_ROW_26_Right_26
*644 PHY_EDGE_ROW_27_Left_59
*645 PHY_EDGE_ROW_27_Right_27
*646 PHY_EDGE_ROW_28_Left_60
*647 PHY_EDGE_ROW_28_Right_28
*648 PHY_EDGE_ROW_29_Left_61
*649 PHY_EDGE_ROW_29_Right_29
*650 PHY_EDGE_ROW_2_Left_34
*651 PHY_EDGE_ROW_2_Right_2
*652 PHY_EDGE_ROW_30_Left_62
*653 PHY_EDGE_ROW_30_Right_30
*654 PHY_EDGE_ROW_31_Left_63
*655 PHY_EDGE_ROW_31_Right_31
*656 PHY_EDGE_ROW_3_Left_35
*657 PHY_EDGE_ROW_3_Right_3
*658 PHY_EDGE_ROW_4_Left_36
*659 PHY_EDGE_ROW_4_Right_4
*660 PHY_EDGE_ROW_5_Left_37
*661 PHY_EDGE_ROW_5_Right_5
*662 PHY_EDGE_ROW_6_Left_38
*663 PHY_EDGE_ROW_6_Right_6
*664 PHY_EDGE_ROW_7_Left_39
*665 PHY_EDGE_ROW_7_Right_7
*666 PHY_EDGE_ROW_8_Left_40
*667 PHY_EDGE_ROW_8_Right_8
*668 PHY_EDGE_ROW_9_Left_41
*669 PHY_EDGE_ROW_9_Right_9
*670 TAP_TAPCELL_ROW_0_64
*671 TAP_TAPCELL_ROW_0_65
*672 TAP_TAPCELL_ROW_0_66
*673 TAP_TAPCELL_ROW_0_67
*674 TAP_TAPCELL_ROW_10_86
*675 TAP_TAPCELL_ROW_10_87
*676 TAP_TAPCELL_ROW_11_88
*677 TAP_TAPCELL_ROW_11_89
*678 TAP_TAPCELL_ROW_12_90
*679 TAP_TAPCELL_ROW_12_91
*680 TAP_TAPCELL_ROW_13_92
*681 TAP_TAPCELL_ROW_13_93
*682 TAP_TAPCELL_ROW_14_94
*683 TAP_TAPCELL_ROW_14_95
*684 TAP_TAPCELL_ROW_15_96
*685 TAP_TAPCELL_ROW_15_97
*686 TAP_TAPCELL_ROW_16_98
*687 TAP_TAPCELL_ROW_16_99
*688 TAP_TAPCELL_ROW_17_100
*689 TAP_TAPCELL_ROW_17_101
*690 TAP_TAPCELL_ROW_18_102
*691 TAP_TAPCELL_ROW_18_103
*692 TAP_TAPCELL_ROW_19_104
*693 TAP_TAPCELL_ROW_19_105
*694 TAP_TAPCELL_ROW_1_68
*695 TAP_TAPCELL_ROW_1_69
*696 TAP_TAPCELL_ROW_20_106
*697 TAP_TAPCELL_ROW_20_107
*698 TAP_TAPCELL_ROW_21_108
*699 TAP_TAPCELL_ROW_21_109
*700 TAP_TAPCELL_ROW_22_110
*701 TAP_TAPCELL_ROW_22_111
*702 TAP_TAPCELL_ROW_23_112
*703 TAP_TAPCELL_ROW_23_113
*704 TAP_TAPCELL_ROW_24_114
*705 TAP_TAPCELL_ROW_24_115
*706 TAP_TAPCELL_ROW_25_116
*707 TAP_TAPCELL_ROW_25_117
*708 TAP_TAPCELL_ROW_26_118
*709 TAP_TAPCELL_ROW_26_119
*710 TAP_TAPCELL_ROW_27_120
*711 TAP_TAPCELL_ROW_27_121
*712 TAP_TAPCELL_ROW_28_122
*713 TAP_TAPCELL_ROW_28_123
*714 TAP_TAPCELL_ROW_29_124
*715 TAP_TAPCELL_ROW_29_125
*716 TAP_TAPCELL_ROW_2_70
*717 TAP_TAPCELL_ROW_2_71
*718 TAP_TAPCELL_ROW_30_126
*719 TAP_TAPCELL_ROW_30_127
*720 TAP_TAPCELL_ROW_31_128
*721 TAP_TAPCELL_ROW_31_129
*722 TAP_TAPCELL_ROW_31_130
*723 TAP_TAPCELL_ROW_31_131
*724 TAP_TAPCELL_ROW_3_72
*725 TAP_TAPCELL_ROW_3_73
*726 TAP_TAPCELL_ROW_4_74
*727 TAP_TAPCELL_ROW_4_75
*728 TAP_TAPCELL_ROW_5_76
*729 TAP_TAPCELL_ROW_5_77
*730 TAP_TAPCELL_ROW_6_78
*731 TAP_TAPCELL_ROW_6_79
*732 TAP_TAPCELL_ROW_7_80
*733 TAP_TAPCELL_ROW_7_81
*734 TAP_TAPCELL_ROW_8_82
*735 TAP_TAPCELL_ROW_8_83
*736 TAP_TAPCELL_ROW_9_84
*737 TAP_TAPCELL_ROW_9_85
*738 ZeroToFiveCounter_10
*739 ZeroToFiveCounter_11
*740 ZeroToFiveCounter_12
*741 ZeroToFiveCounter_13
*742 ZeroToFiveCounter_14
*743 ZeroToFiveCounter_15
*744 ZeroToFiveCounter_16
*745 ZeroToFiveCounter_9
*746 _162_
*747 _163_
*748 _164_
*749 _165_
*750 _166_
*751 _167_
*752 _168_
*753 _169_
*754 _170_
*755 _171_
*756 _172_
*757 _173_
*758 _174_
*759 _175_
*760 _176_
*761 _177_
*762 _178_
*763 _179_
*764 _180_
*765 _181_
*766 _182_
*767 _183_
*768 _184_
*769 _185_
*770 _186_
*771 _187_
*772 _188_
*773 _189_
*774 _190_
*775 _191_
*776 _192_
*777 _193_
*778 _194_
*779 _195_
*780 _196_
*781 _197_
*782 _198_
*783 _199_
*784 _200_
*785 _201_
*786 _202_
*787 _203_
*788 _204_
*789 _205_
*790 _206_
*791 _207_
*792 _208_
*793 _209_
*794 _210_
*795 _211_
*796 _212_
*797 _213_
*798 _214_
*799 _215_
*800 _216_
*801 _217_
*802 _218_
*803 _219_
*804 _220_
*805 _221_
*806 _222_
*807 _223_
*808 _224_
*809 _225_
*810 _226_
*811 _227_
*812 _228_
*813 _229_
*814 _230_
*815 _231_
*816 _232_
*817 _233_
*818 _234_
*819 _235_
*820 _236_
*821 _237_
*822 _238_
*823 _239_
*824 _240_
*825 _241_
*826 _242_
*827 _243_
*828 _244_
*829 _245_
*830 _246_
*831 _247_
*832 _248_
*833 _249_
*834 _250_
*835 _251_
*836 _252_
*837 _253_
*838 _254_
*839 _255_
*840 _256_
*841 _257_
*842 _258_
*843 _259_
*844 _260_
*845 _261_
*846 _262_
*847 _263_
*848 _264_
*849 _265_
*850 _266_
*851 _267_
*852 _268_
*853 _269_
*854 _270_
*855 _271_
*856 _272_
*857 _273_
*858 _274_
*859 _275_
*860 _276_
*861 _277_
*862 _278_
*863 _279_
*864 _280_
*865 _281_
*866 _282_
*867 _283_
*868 _284_
*869 _285_
*870 _286_
*871 _287_
*872 _288_
*873 _289_
*874 _290_
*875 _291_
*876 _292_
*877 _293_
*878 _294_
*879 _295_
*880 _296_
*881 _297_
*882 _298_
*883 _299_
*884 _300_
*885 _301_
*886 _302_
*887 _303_
*888 _304_
*889 _305_
*890 _306_
*891 _307_
*892 _308_
*893 _309_
*894 _310_
*895 _311_
*896 _312_
*897 _313_
*898 _314_
*899 _315_
*900 _316_
*901 _317_
*902 _318_
*903 _319_
*904 _320_
*905 _321_
*906 _322_
*907 _323_
*908 _324_
*909 _325_
*910 _326_
*911 _327_
*912 _328_
*913 _329_
*914 _330_
*915 _331_
*916 _332_
*917 _333_
*918 _334_
*919 _335_
*920 _336_
*921 _337_
*922 _338_
*923 _339_
*924 _340_
*925 _341_
*926 _342_
*927 _343_
*928 _344_
*929 _345_
*930 _346_
*931 _347_
*932 _348_
*933 _349_
*934 _350_
*935 _351_
*936 _352_
*937 _353_
*938 _354_
*939 _355_
*940 _356_
*941 _357_
*942 _358_
*943 _359_
*944 _360_
*945 _361_
*946 _370_
*947 clkbuf_0_clk
*948 clkbuf_2_0__f_clk
*949 clkbuf_2_1__f_clk
*950 clkbuf_2_2__f_clk
*951 clkbuf_2_3__f_clk
*952 clkload0
*953 clkload1
*954 clkload2
*955 input1
*956 output2
*957 output3
*958 output4
*959 output5
*960 output6
*961 output7
*962 output8

*PORTS
an[0] O
an[1] O
an[2] O
an[3] O
an[4] O
an[5] O
an[6] O
an[7] O
clk I
rst I
seg[0] O
seg[1] O
seg[2] O
seg[3] O
seg[4] O
seg[5] O
seg[6] O

*D_NET *3 0.00137958
*CONN
*P an[0] O
*I *738:HI O *D sky130_fd_sc_hd__conb_1
*CAP
1 an[0] 0.000585897
2 *738:HI 0.000585897
3 an[0] seg[6] 0
4 an[0] *53:16 0
5 an[0] *53:18 0.000207784
*RES
1 *738:HI an[0] 14.115 
*END

*D_NET *4 0.000876634
*CONN
*P an[1] O
*I *739:HI O *D sky130_fd_sc_hd__conb_1
*CAP
1 an[1] 0.000381668
2 *739:HI 0.000381668
3 an[1] *805:A 0
4 an[1] *915:RESET_B 2.67022e-05
5 an[1] *53:16 8.65961e-05
*RES
1 *739:HI an[1] 10.185 
*END

*D_NET *5 0.000796902
*CONN
*P an[2] O
*I *740:HI O *D sky130_fd_sc_hd__conb_1
*CAP
1 an[2] 0.000374305
2 *740:HI 0.000374305
3 an[2] *53:16 4.82919e-05
*RES
1 *740:HI an[2] 9.84 
*END

*D_NET *6 0.000869202
*CONN
*P an[3] O
*I *741:HI O *D sky130_fd_sc_hd__conb_1
*CAP
1 an[3] 0.000425894
2 *741:HI 0.000425894
3 an[3] *179:29 1.7413e-05
*RES
1 *741:HI an[3] 10.74 
*END

*D_NET *7 0.00136846
*CONN
*P an[4] O
*I *742:HI O *D sky130_fd_sc_hd__conb_1
*CAP
1 an[4] 0.000469952
2 *742:HI 0.000469952
3 an[4] *844:A 6.53854e-05
4 an[4] *844:C 5.49535e-05
5 an[4] *845:A 0
6 an[4] *179:29 0.000308214
*RES
1 *742:HI an[4] 12.765 
*END

*D_NET *8 0.000770463
*CONN
*P an[5] O
*I *743:HI O *D sky130_fd_sc_hd__conb_1
*CAP
1 an[5] 0.000376039
2 *743:HI 0.000376039
3 an[5] *805:A 0
4 an[5] *179:29 1.83847e-05
*RES
1 *743:HI an[5] 9.84 
*END

*D_NET *9 0.00088048
*CONN
*P an[6] O
*I *744:HI O *D sky130_fd_sc_hd__conb_1
*CAP
1 an[6] 0.000424458
2 *744:HI 0.000424458
3 an[6] *915:RESET_B 0
4 an[6] *179:18 3.1563e-05
*RES
1 *744:HI an[6] 10.74 
*END

*D_NET *10 0.000982746
*CONN
*P an[7] O
*I *745:LO O *D sky130_fd_sc_hd__conb_1
*CAP
1 an[7] 0.000491373
2 *745:LO 0.000491373
*RES
1 *745:LO an[7] 12.075 
*END

*D_NET *11 0.0107165
*CONN
*P clk I
*I *947:A I *D sky130_fd_sc_hd__clkbuf_16
*CAP
1 clk 0.00323577
2 *947:A 0.00323577
3 *947:A *761:A 0.00149852
4 *947:A *789:B 0.000296737
5 *947:A *829:A 1.11489e-05
6 *947:A *830:A1 2.49909e-05
7 *947:A *830:A2 4.70522e-05
8 *947:A *830:B1 5.26385e-05
9 *947:A *843:A 0.000112765
10 *947:A *866:A 0.000405728
11 *947:A *873:B1 0
12 *947:A *879:A 0.00033206
13 *947:A *929:D 4.90414e-05
14 *947:A *939:RESET_B 6.08725e-05
15 *947:A *47:41 0.000134058
16 *947:A *47:62 0.000175148
17 *947:A *84:22 0.000193222
18 *947:A *147:34 0.000295589
19 *947:A *156:20 2.96278e-05
20 *947:A *178:32 0.000128136
21 *947:A *181:18 2.98807e-05
22 *947:A *181:24 5.93727e-05
23 *947:A *187:40 4.40009e-05
24 *947:A *197:30 0.000223952
25 *947:A *226:36 4.03791e-05
*RES
1 clk *947:A 17.8741 
*END

*D_NET *12 0.000775188
*CONN
*P rst I
*I *955:A I *D sky130_fd_sc_hd__clkbuf_2
*CAP
1 rst 0.000307471
2 *955:A 0.000307471
3 *955:A *770:A2 0
4 *955:A *936:D 0.000160246
*RES
1 rst *955:A 7.9443 
*END

*D_NET *13 0.000706061
*CONN
*P seg[0] O
*I *956:X O *D sky130_fd_sc_hd__buf_1
*CAP
1 seg[0] 0.000353031
2 *956:X 0.000353031
3 seg[0] *929:RESET_B 0
*RES
1 *956:X seg[0] 6.37677 
*END

*D_NET *14 0.000614684
*CONN
*P seg[1] O
*I *957:X O *D sky130_fd_sc_hd__buf_1
*CAP
1 seg[1] 0.000246846
2 *957:X 0.000246846
3 seg[1] *936:RESET_B 0.000109281
4 seg[1] *957:A 1.17114e-05
*RES
1 *957:X seg[1] 4.84677 
*END

*D_NET *15 0.000885899
*CONN
*P seg[2] O
*I *958:X O *D sky130_fd_sc_hd__buf_1
*CAP
1 seg[2] 0.000369189
2 *958:X 0.000369189
3 seg[2] *958:A 4.26556e-05
4 seg[2] *40:18 0
5 seg[2] *88:22 0.000104865
*RES
1 *958:X seg[2] 5.86677 
*END

*D_NET *16 0.000791819
*CONN
*P seg[3] O
*I *959:X O *D sky130_fd_sc_hd__buf_1
*CAP
1 seg[3] 0.000303147
2 *959:X 0.000303147
3 seg[3] *40:18 5.26882e-05
4 seg[3] *64:20 0.000105991
5 seg[3] *195:53 2.68464e-05
*RES
1 *959:X seg[3] 7.40543 
*END

*D_NET *17 0.000884878
*CONN
*P seg[4] O
*I *960:X O *D sky130_fd_sc_hd__buf_1
*CAP
1 seg[4] 0.00036388
2 *960:X 0.00036388
3 seg[4] *852:A1 0.000127025
4 seg[4] *64:20 0
5 seg[4] *95:82 2.60684e-05
6 seg[4] *189:61 4.02448e-06
*RES
1 *960:X seg[4] 6.12177 
*END

*D_NET *18 0.000640408
*CONN
*P seg[5] O
*I *961:X O *D sky130_fd_sc_hd__buf_1
*CAP
1 seg[5] 0.000294867
2 *961:X 0.000294867
3 seg[5] *803:A 2.05641e-05
4 seg[5] *929:RESET_B 3.01101e-05
5 seg[5] *958:A 0
*RES
1 *961:X seg[5] 4.84677 
*END

*D_NET *19 0.00114707
*CONN
*P seg[6] O
*I *962:X O *D sky130_fd_sc_hd__buf_1
*CAP
1 seg[6] 0.000511063
2 *962:X 0.000511063
3 seg[6] *805:A 0
4 seg[6] *805:B 3.23755e-05
5 seg[6] *845:A 9.2574e-05
6 an[0] seg[6] 0
*RES
1 *962:X seg[6] 8.4733 
*END

*D_NET *20 0.0206809
*CONN
*I *232:DIODE I *D sky130_fd_sc_hd__diode_2
*I *914:D I *D sky130_fd_sc_hd__dfrtp_4
*I *774:Y O *D sky130_fd_sc_hd__nor2_1
*CAP
1 *232:DIODE 0.000204831
2 *914:D 0
3 *774:Y 0.00325464
4 *20:40 0.00134288
5 *20:26 0.00439269
6 *232:DIODE *944:CLK 6.33103e-05
7 *232:DIODE *183:16 0.000124567
8 *20:26 *228:DIODE 2.31579e-05
9 *20:26 *792:C 0.000161028
10 *20:26 *796:B 0.000703355
11 *20:26 *817:A 0.00170342
12 *20:26 *836:B 0.000720937
13 *20:26 *844:C 0.000172522
14 *20:26 *879:A 0.00018259
15 *20:26 *906:A 0.000258068
16 *20:26 *913:A 8.23566e-05
17 *20:26 *924:RESET_B 0.000260075
18 *20:26 *932:D 0
19 *20:26 *933:D 6.25401e-05
20 *20:26 *934:D 0.000132129
21 *20:26 *936:RESET_B 0.000111555
22 *20:26 *945:D 0.00050173
23 *20:26 *35:28 0.000716602
24 *20:26 *93:12 0.000254635
25 *20:26 *105:38 9.27921e-05
26 *20:26 *105:56 0.000139454
27 *20:26 *107:16 0.00125462
28 *20:26 *134:65 0.000131738
29 *20:26 *136:30 0
30 *20:26 *186:98 0.000102927
31 *20:26 *188:46 1.64893e-05
32 *20:26 *191:10 0.000257278
33 *20:26 *198:26 0.000142373
34 *20:26 *202:51 5.12916e-05
35 *20:26 *211:16 3.60724e-05
36 *20:26 *226:62 1.12102e-05
37 *20:40 *789:B 0.000295349
38 *20:40 *796:B 9.66791e-05
39 *20:40 *914:RESET_B 3.1968e-05
40 *20:40 *916:D 9.63327e-05
41 *20:40 *944:CLK 5.8483e-05
42 *20:40 *59:22 0.000833033
43 *20:40 *98:10 2.19433e-05
44 *20:40 *107:16 1.38481e-05
45 *20:40 *142:38 0.00154729
46 *20:40 *199:14 2.01259e-05
*RES
1 *774:Y *20:26 43.1336 
2 *20:26 *20:40 32.8275 
3 *20:40 *914:D 1.6 
4 *20:40 *232:DIODE 4.81 
*END

*D_NET *21 0.00181737
*CONN
*I *924:D I *D sky130_fd_sc_hd__dfrtp_2
*I *810:X O *D sky130_fd_sc_hd__clkbuf_1
*CAP
1 *924:D 0.000662333
2 *810:X 0.000662333
3 *924:D *785:A 0.000120186
4 *924:D *799:A1 0.000117407
5 *924:D *824:A 0.000145053
6 *924:D *824:B 8.53224e-05
7 *924:D *143:8 2.47313e-05
*RES
1 *810:X *924:D 17.82 
*END

*D_NET *22 0.00773353
*CONN
*I *925:D I *D sky130_fd_sc_hd__dfrtp_1
*I *813:Y O *D sky130_fd_sc_hd__nor3_1
*CAP
1 *925:D 0.00214025
2 *813:Y 0.00214025
3 *925:D *765:C 0
4 *925:D *778:A 0.000171017
5 *925:D *814:A 5.7289e-05
6 *925:D *830:A1 0.000160893
7 *925:D *830:A2 0.000138929
8 *925:D *835:A 7.37528e-05
9 *925:D *870:B 0.000196809
10 *925:D *922:RESET_B 7.03042e-05
11 *925:D *924:RESET_B 0.000985626
12 *925:D *925:CLK 0.000137527
13 *925:D *929:D 3.63249e-05
14 *925:D *939:RESET_B 0
15 *925:D *47:41 0.000283338
16 *925:D *47:62 0.000220757
17 *925:D *115:76 0
18 *925:D *115:95 0
19 *925:D *134:65 1.73768e-05
20 *925:D *178:32 1.29203e-05
21 *925:D *181:16 3.45968e-06
22 *925:D *182:18 4.60061e-05
23 *925:D *187:60 0.000479474
24 *925:D *188:117 0.000107452
25 *925:D *200:34 0.000144797
26 *925:D *204:28 7.67805e-05
27 *925:D *219:16 3.2189e-05
*RES
1 *813:Y *925:D 21.6035 
*END

*D_NET *23 0.00775351
*CONN
*I *926:D I *D sky130_fd_sc_hd__dfrtp_2
*I *817:X O *D sky130_fd_sc_hd__clkbuf_1
*CAP
1 *926:D 0.00151154
2 *817:X 0.00151154
3 *926:D *790:A 0.000202252
4 *926:D *795:A 0.000118996
5 *926:D *799:B1 0.000286996
6 *926:D *864:B 0
7 *926:D *928:D 0.000104904
8 *926:D *929:D 1.86715e-05
9 *926:D *930:D 0.00106598
10 *926:D *945:RESET_B 0.000506071
11 *926:D *951:A 5.64519e-05
12 *926:D *84:34 1.26803e-05
13 *926:D *156:32 0.000222994
14 *926:D *170:43 8.23457e-05
15 *926:D *178:32 8.03802e-05
16 *926:D *180:145 4.76907e-05
17 *926:D *190:60 0
18 *926:D *206:28 0.00120601
19 *926:D *220:71 0.000718009
*RES
1 *817:X *926:D 28.8419 
*END

*D_NET *24 0.00507526
*CONN
*I *927:D I *D sky130_fd_sc_hd__dfrtp_1
*I *821:X O *D sky130_fd_sc_hd__clkbuf_1
*CAP
1 *927:D 0.00146841
2 *821:X 0.00146841
3 *927:D *835:B 0.000395162
4 *927:D *840:B1 0.000157551
5 *927:D *927:CLK 2.749e-05
6 *927:D *184:25 0.000261022
7 *927:D *189:39 0.000899253
8 *927:D *226:24 0.00039796
*RES
1 *821:X *927:D 28.515 
*END

*D_NET *25 0.00311613
*CONN
*I *928:D I *D sky130_fd_sc_hd__dfrtp_1
*I *826:X O *D sky130_fd_sc_hd__clkbuf_1
*CAP
1 *928:D 0.000822841
2 *826:X 0.000822841
3 *928:D *784:C 0.000199615
4 *928:D *790:A 5.71607e-05
5 *928:D *810:A 4.76682e-05
6 *928:D *824:B 2.68464e-05
7 *928:D *854:A 0
8 *928:D *876:B 2.00383e-05
9 *928:D *918:RESET_B 7.01101e-05
10 *928:D *926:CLK 0.000110776
11 *928:D *90:42 8.52845e-05
12 *928:D *134:65 0
13 *928:D *170:43 0.0001717
14 *928:D *178:32 0.000241443
15 *928:D *200:34 0.000127156
16 *928:D *220:71 9.95495e-05
17 *928:D *225:30 0.000108201
18 *926:D *928:D 0.000104904
*RES
1 *826:X *928:D 22.92 
*END

*D_NET *26 0.00891143
*CONN
*I *929:D I *D sky130_fd_sc_hd__dfrtp_1
*I *830:Y O *D sky130_fd_sc_hd__a211oi_1
*CAP
1 *929:D 0.00250714
2 *830:Y 0.00250714
3 *929:D *783:A3 3.60648e-06
4 *929:D *783:B1 4.20657e-05
5 *929:D *793:C 4.83187e-05
6 *929:D *799:B1 0.000818937
7 *929:D *803:A 7.58228e-05
8 *929:D *830:A1 4.82863e-05
9 *929:D *830:A2 0.000519279
10 *929:D *871:A2 0.000119866
11 *929:D *912:A 0.00017074
12 *929:D *918:CLK 5.8678e-05
13 *929:D *918:D 7.06865e-05
14 *929:D *923:RESET_B 3.83194e-05
15 *929:D *929:CLK 0.000100879
16 *929:D *944:RESET_B 0.000154911
17 *929:D *27:18 4.21808e-05
18 *929:D *47:62 2.19562e-06
19 *929:D *47:73 3.64998e-06
20 *929:D *134:34 0.000274688
21 *929:D *152:20 5.30242e-05
22 *929:D *156:32 0.000109412
23 *929:D *182:18 0.000154977
24 *929:D *199:41 7.54647e-05
25 *929:D *200:34 6.42016e-05
26 *929:D *205:8 4.21991e-05
27 *929:D *206:28 0.000631941
28 *929:D *212:24 4.65549e-05
29 *929:D *220:71 2.22315e-05
30 *925:D *929:D 3.63249e-05
31 *926:D *929:D 1.86715e-05
32 *947:A *929:D 4.90414e-05
*RES
1 *830:Y *929:D 35.1897 
*END

*D_NET *27 0.0178323
*CONN
*I *930:D I *D sky130_fd_sc_hd__dfrtp_4
*I *834:X O *D sky130_fd_sc_hd__buf_1
*CAP
1 *930:D 0.00210919
2 *834:X 0.00229317
3 *27:18 0.00440236
4 *930:D *759:A 0.000412281
5 *930:D *792:C 3.82736e-05
6 *930:D *795:A 0
7 *930:D *815:B 0
8 *930:D *851:D 0.000119873
9 *930:D *896:A 1.32843e-05
10 *930:D *930:CLK 1.83756e-05
11 *930:D *930:RESET_B 0
12 *930:D *931:RESET_B 0.000241131
13 *930:D *951:A 4.07391e-05
14 *930:D *105:14 6.96151e-05
15 *930:D *220:101 0.000934799
16 *27:18 *781:A 0.000577862
17 *27:18 *803:A 0.000529752
18 *27:18 *825:B 8.7152e-06
19 *27:18 *923:RESET_B 1.81196e-05
20 *27:18 *929:RESET_B 0.00161764
21 *27:18 *936:RESET_B 0.000682306
22 *27:18 *53:18 2.61791e-05
23 *27:18 *55:20 0.000818007
24 *27:18 *60:22 0.00144331
25 *27:18 *197:30 0
26 *27:18 *199:41 0.00030915
27 *926:D *930:D 0.00106598
28 *929:D *27:18 4.21808e-05
*RES
1 *834:X *27:18 46.4594 
2 *27:18 *930:D 39.185 
*END

*D_NET *28 0.0096594
*CONN
*I *931:D I *D sky130_fd_sc_hd__dfrtp_4
*I *836:Y O *D sky130_fd_sc_hd__nor2_1
*CAP
1 *931:D 6.053e-05
2 *836:Y 0.00256176
3 *28:18 0.00262229
4 *931:D *207:26 0.000119251
5 *28:18 *753:A 0.000150904
6 *28:18 *758:B1 0.000342594
7 *28:18 *836:B 6.2053e-05
8 *28:18 *845:A 0.0012613
9 *28:18 *893:A 6.06948e-05
10 *28:18 *917:D 0.000863893
11 *28:18 *931:RESET_B 7.30213e-05
12 *28:18 *108:18 6.1908e-05
13 *28:18 *114:22 0.00035091
14 *28:18 *180:160 0.000379763
15 *28:18 *187:14 0.000688536
*RES
1 *836:Y *28:18 49.065 
2 *28:18 *931:D 4.74 
*END

*D_NET *29 0.0184092
*CONN
*I *932:D I *D sky130_fd_sc_hd__dfrtp_4
*I *839:X O *D sky130_fd_sc_hd__o211a_1
*CAP
1 *932:D 0.00243547
2 *839:X 0.00108645
3 *29:16 0.00352192
4 *932:D *228:DIODE 3.22177e-05
5 *932:D *795:A 4.13167e-05
6 *932:D *865:B 0.000347637
7 *932:D *940:D 0.000147641
8 *932:D *107:16 0
9 *932:D *108:18 0.00211342
10 *932:D *163:8 8.70629e-05
11 *932:D *175:49 0.000125866
12 *932:D *190:60 3.82018e-05
13 *932:D *198:26 0.000147331
14 *932:D *212:24 3.82018e-05
15 *932:D *216:34 0.00135388
16 *932:D *216:58 0.000259395
17 *29:16 *770:A2 0.00239826
18 *29:16 *839:A2 5.4354e-05
19 *29:16 *839:B1 4.66108e-05
20 *29:16 *839:C1 8.23457e-05
21 *29:16 *856:A 0.000877422
22 *29:16 *860:B1 0.000234535
23 *29:16 *862:B 0.000312113
24 *29:16 *37:22 0.00227462
25 *29:16 *44:24 1.57506e-05
26 *29:16 *198:26 0.00033715
27 *20:26 *932:D 0
*RES
1 *839:X *29:16 47.2925 
2 *29:16 *932:D 12.4404 
*END

*D_NET *30 0.00380528
*CONN
*I *933:D I *D sky130_fd_sc_hd__dfrtp_1
*I *845:X O *D sky130_fd_sc_hd__clkbuf_1
*CAP
1 *933:D 0.0010658
2 *845:X 0.0010658
3 *933:D *755:A2 5.16625e-05
4 *933:D *756:A 5.61391e-05
5 *933:D *815:A 0.00071959
6 *933:D *815:B 4.42148e-05
7 *933:D *934:CLK 6.81928e-05
8 *933:D *934:RESET_B 0.000100797