*SPEF "ieee 1481-1999"
*DESIGN "first_project"
*DATE "16:06:13 Saturday April 26, 2025"
*VENDOR "The OpenROAD Project"
*PROGRAM "OpenROAD"
*VERSION "b16bda7e82721d10566ff7e2b68f1ff0be9f9e38"
*DESIGN_FLOW "NAME_SCOPE LOCAL" "PIN_CAP NONE"
*DIVIDER /
*DELIMITER :
*BUS_DELIMITER []
*T_UNIT 1 NS
*C_UNIT 1 PF
*R_UNIT 1 OHM
*L_UNIT 1 HENRY

*NAME_MAP
*3 in[0]
*4 in[1]
*5 in[2]
*6 in[3]
*7 in[4]
*8 in[5]
*9 in[6]
*10 in[7]
*11 out[0]
*12 out[1]
*13 out[2]
*14 out[3]
*15 out[4]
*16 out[5]
*17 out[6]
*18 out[7]
*19 _00_
*20 _01_
*21 _02_
*22 _03_
*23 _04_
*24 _05_
*25 _06_
*26 _07_
*27 _08_
*28 net1
*29 net10
*30 net11
*31 net12
*32 net13
*33 net14
*34 net15
*35 net16
*36 net2
*37 net3
*38 net4
*39 net5
*40 net6
*41 net7
*42 net8
*43 net9
*44 FILLER_0_0_18
*45 FILLER_0_0_26
*46 FILLER_0_0_3
*47 FILLER_0_1_22
*48 FILLER_0_1_31
*49 FILLER_0_2_14
*50 FILLER_0_2_24
*51 FILLER_0_2_29
*52 FILLER_0_2_34
*53 FILLER_0_2_6
*54 FILLER_0_3_15
*55 FILLER_0_3_27
*56 FILLER_0_3_9
*57 FILLER_0_4_3
*58 FILLER_0_4_36
*59 FILLER_0_5_18
*60 FILLER_0_5_29
*61 FILLER_0_5_6
*62 PHY_EDGE_ROW_0_Left_6
*63 PHY_EDGE_ROW_0_Right_0
*64 PHY_EDGE_ROW_1_Left_7
*65 PHY_EDGE_ROW_1_Right_1
*66 PHY_EDGE_ROW_2_Left_8
*67 PHY_EDGE_ROW_2_Right_2
*68 PHY_EDGE_ROW_3_Left_9
*69 PHY_EDGE_ROW_3_Right_3
*70 PHY_EDGE_ROW_4_Left_10
*71 PHY_EDGE_ROW_4_Right_4
*72 PHY_EDGE_ROW_5_Left_11
*73 PHY_EDGE_ROW_5_Right_5
*74 TAP_TAPCELL_ROW_0_12
*75 TAP_TAPCELL_ROW_2_13
*76 TAP_TAPCELL_ROW_4_14
*77 TAP_TAPCELL_ROW_5_15
*78 _09_
*79 _10_
*80 _11_
*81 _12_
*82 _13_
*83 _14_
*84 _15_
*85 _16_
*86 _17_
*87 _18_
*88 _19_
*89 _20_
*90 _21_
*91 _22_
*92 _23_
*93 _24_
*94 _25_
*95 input1
*96 input2
*97 input3
*98 input4
*99 input5
*100 input6
*101 input7
*102 input8
*103 output10
*104 output11
*105 output12
*106 output13
*107 output14
*108 output15
*109 output16
*110 output9

*PORTS
in[0] I
in[1] I
in[2] I
in[3] I
in[4] I
in[5] I
in[6] I
in[7] I
out[0] O
out[1] O
out[2] O
out[3] O
out[4] O
out[5] O
out[6] O
out[7] O

*D_NET *3 0.00113114
*CONN
*P in[0] I
*I *95:A I *D sky130_fd_sc_hd__buf_1
*CAP
1 in[0] 0.000554716
2 *95:A 0.000554716
3 *95:A *90:A1 3.75882e-06
4 *95:A *96:A 0
5 *95:A *97:A 1.79483e-05
*RES
1 in[0] *95:A 10.9668 
*END

*D_NET *4 0.00122236
*CONN
*P in[1] I
*I *96:A I *D sky130_fd_sc_hd__buf_1
*CAP
1 in[1] 0.000611181
2 *96:A 0.000611181
3 *96:A *97:A 0
4 *95:A *96:A 0
*RES
1 in[1] *96:A 8.43117 
*END

*D_NET *5 0.00128616
*CONN
*P in[2] I
*I *97:A I *D sky130_fd_sc_hd__clkbuf_1
*CAP
1 in[2] 0.000519055
2 *97:A 0.000519055
3 *97:A *88:A 2.34495e-05
4 *97:A *90:A1 8.52977e-05
5 *97:A *98:A 0
6 *97:A *28:6 1.08036e-05
7 *97:A *37:6 6.59619e-05
8 *97:A *37:12 4.4587e-05
9 *95:A *97:A 1.79483e-05
10 *96:A *97:A 0
*RES
1 in[2] *97:A 10.4285 
*END

*D_NET *6 0.000563628
*CONN
*P in[3] I
*I *98:A I *D sky130_fd_sc_hd__clkbuf_1
*CAP
1 in[3] 0.000255606
2 *98:A 0.000255606
3 *98:A *99:A 1.11399e-05
4 *98:A *19:12 4.12764e-05
5 *97:A *98:A 0
*RES
1 in[3] *98:A 5.86677 
*END

*D_NET *7 0.000834677
*CONN
*P in[4] I
*I *99:A I *D sky130_fd_sc_hd__buf_1
*CAP
1 in[4] 0.000395644
2 *99:A 0.000395644
3 *99:A *100:A 5.33311e-06
4 *99:A *19:12 0
5 *99:A *38:8 2.69153e-05
6 *98:A *99:A 1.11399e-05
*RES
1 in[4] *99:A 9.2493 
*END

*D_NET *8 0.00075341
*CONN
*P in[5] I
*I *100:A I *D sky130_fd_sc_hd__buf_1
*CAP
1 in[5] 0.000374038
2 *100:A 0.000374038
3 *100:A *83:A3 0
4 *100:A *101:A 0
5 *100:A *19:12 0
6 *100:A *19:14 0
7 *99:A *100:A 5.33311e-06
*RES
1 in[5] *100:A 8.8743 
*END

*D_NET *9 0.00123739
*CONN
*P in[6] I
*I *101:A I *D sky130_fd_sc_hd__clkbuf_1
*CAP
1 in[6] 0.000541201
2 *101:A 0.000541201
3 *101:A *83:A3 5.30673e-05
4 *101:A *85:A_N 1.16854e-05
5 *101:A *102:A 1.37328e-05
6 *101:A *41:8 7.65058e-05
7 *100:A *101:A 0
*RES
1 in[6] *101:A 10.9552 
*END

*D_NET *10 0.00187716
*CONN
*P in[7] I
*I *102:A I *D sky130_fd_sc_hd__clkbuf_1
*CAP
1 in[7] 0.000928796
2 *102:A 0.000928796
3 *102:A *109:A 5.83121e-06
4 *101:A *102:A 1.37328e-05
*RES
1 in[7] *102:A 11.6723 
*END

*D_NET *11 0.00108737
*CONN
*P out[0] O
*I *110:X O *D sky130_fd_sc_hd__clkbuf_4
*CAP
1 out[0] 0.000543684
2 *110:X 0.000543684
3 out[0] out[1] 0
*RES
1 *110:X out[0] 10.7118 
*END

*D_NET *12 0.00131027
*CONN
*P out[1] O
*I *103:X O *D sky130_fd_sc_hd__buf_2
*CAP
1 out[1] 0.000652994
2 *103:X 0.000652994
3 out[1] out[2] 4.28112e-06
4 out[0] out[1] 0
*RES
1 *103:X out[1] 8.0377 
*END

*D_NET *13 0.00150711
*CONN
*P out[2] O
*I *104:X O *D sky130_fd_sc_hd__buf_2
*CAP
1 out[2] 0.00074651
2 *104:X 0.00074651
3 out[2] out[3] 0
4 out[2] *88:A 3.97604e-06
5 out[2] *104:A 5.83121e-06
6 out[1] out[2] 4.28112e-06
*RES
1 *104:X out[2] 6.30923 
*END

*D_NET *14 0.000897393
*CONN
*P out[3] O
*I *105:X O *D sky130_fd_sc_hd__buf_2
*CAP
1 out[3] 0.00039797
2 *105:X 0.00039797
3 out[3] out[4] 7.7388e-05
4 out[3] *105:A 2.40647e-05
5 out[2] out[3] 0
*RES
1 *105:X out[3] 6.4083 
*END

*D_NET *15 0.00135336
*CONN
*P out[4] O
*I *106:X O *D sky130_fd_sc_hd__buf_2
*CAP
1 out[4] 0.000636163
2 *106:X 0.000636163
3 out[4] out[5] 0
4 out[4] *106:A 3.64998e-06
5 out[3] out[4] 7.7388e-05
*RES
1 *106:X out[4] 7.06963 
*END

*D_NET *16 0.000597105
*CONN
*P out[5] O
*I *107:X O *D sky130_fd_sc_hd__buf_2
*CAP
1 out[5] 0.00028912
2 *107:X 0.00028912
3 out[5] out[6] 0
4 out[5] *108:A 1.88656e-05
5 out[4] out[5] 0
*RES
1 *107:X out[5] 4.90503 
*END

*D_NET *17 0.000625827
*CONN
*P out[6] O
*I *108:X O *D sky130_fd_sc_hd__buf_2
*CAP
1 out[6] 0.000312914
2 *108:X 0.000312914
3 out[6] out[7] 0
4 out[5] out[6] 0
*RES
1 *108:X out[6] 5.92503 
*END

*D_NET *18 0.00107957
*CONN
*P out[7] O
*I *109:X O *D sky130_fd_sc_hd__buf_2
*CAP
1 out[7] 0.000539786
2 *109:X 0.000539786
3 out[6] out[7] 0
*RES
1 *109:X out[7] 9.2181 
*END

*D_NET *19 0.00335779
*CONN
*I *93:B1_N I *D sky130_fd_sc_hd__a21boi_1
*I *79:B I *D sky130_fd_sc_hd__nor2_1
*I *80:B I *D sky130_fd_sc_hd__and2_1
*I *84:D I *D sky130_fd_sc_hd__or4_1
*I *83:A3 I *D sky130_fd_sc_hd__o31a_1
*I *78:X O *D sky130_fd_sc_hd__or4_2
*CAP
1 *93:B1_N 0.000131166
2 *79:B 3.33278e-05
3 *80:B 0.000153947
4 *84:D 4.74873e-05
5 *83:A3 0.000166312
6 *78:X 5.51102e-05
7 *19:42 0.000370024
8 *19:14 0.000275694
9 *19:12 0.000437737
10 *19:8 0.00037937
11 *79:B *20:10 1.14169e-05
12 *80:B *20:10 4.49257e-05
13 *83:A3 *83:A1 1.10951e-05
14 *83:A3 *83:B1 3.09233e-05
15 *83:A3 *84:C 0.000128676
16 *83:A3 *39:14 1.44465e-05
17 *83:A3 *41:8 4.66108e-05
18 *84:D *84:A 4.77769e-05
19 *84:D *23:6 1.41165e-05
20 *93:B1_N *90:A1 6.33103e-05
21 *93:B1_N *105:A 1.75875e-05
22 *93:B1_N *28:14 8.34281e-06
23 *93:B1_N *28:20 3.59921e-05
24 *19:8 *90:A1 5.83121e-06
25 *19:12 *78:A 0.00011686
26 *19:12 *89:A 2.39546e-05
27 *19:12 *89:B 1.37112e-05
28 *19:12 *39:8 7.23237e-05
29 *19:12 *39:14 1.64141e-05
30 *19:14 *39:14 5.87002e-05
31 *19:42 *39:40 0.000310383
32 *19:42 *40:10 0.000119873
33 *98:A *19:12 4.12764e-05
34 *99:A *19:12 0
35 *100:A *83:A3 0
36 *100:A *19:12 0
37 *100:A *19:14 0
38 *101:A *83:A3 5.30673e-05
*RES
1 *78:X *19:8 2.41 
2 *19:8 *19:12 6.185 
3 *19:12 *19:14 1.38 
4 *19:14 *83:A3 7.35 
5 *19:14 *84:D 4.395 
6 *19:12 *19:42 5.9 
7 *19:42 *80:B 4.06 
8 *19:42 *79:B 2.41 
9 *19:8 *93:B1_N 3.79 
*END

*D_NET *20 0.00084992
*CONN
*I *81:A I *D sky130_fd_sc_hd__nor2_1
*I *82:B I *D sky130_fd_sc_hd__xnor2_1
*I *79:Y O *D sky130_fd_sc_hd__nor2_1
*CAP
1 *81:A 0
2 *82:B 0.000140306
3 *79:Y 0.000213253
4 *20:10 0.000353559
5 *20:10 *81:B 8.64599e-05
6 *79:B *20:10 1.14169e-05
7 *80:B *20:10 4.49257e-05
*RES
1 *79:Y *20:10 5.53 
2 *20:10 *82:B 7.745 
3 *20:10 *81:A 1.6 
*END

*D_NET *21 0.000151758
*CONN
*I *81:B I *D sky130_fd_sc_hd__nor2_1
*I *80:X O *D sky130_fd_sc_hd__and2_1
*CAP
1 *81:B 3.26491e-05
2 *80:X 3.26491e-05
3 *20:10 *81:B 8.64599e-05
*RES
1 *80:X *81:B 3.995 
*END

*D_NET *22 0.000673401
*CONN
*I *85:A_N I *D sky130_fd_sc_hd__and2b_1
*I *83:X O *D sky130_fd_sc_hd__o31a_1
*CAP
1 *85:A_N 0.00016472
2 *83:X 0.00016472
3 *85:A_N *82:A 2.10214e-05
4 *85:A_N *85:B 0.000121038
5 *85:A_N *87:A 0.000141286
6 *85:A_N *40:16 0
7 *85:A_N *41:8 4.89295e-05
8 *101:A *85:A_N 1.16854e-05
*RES
1 *83:X *85:A_N 10.515 
*END

*D_NET *23 0.00115156
*CONN
*I *85:B I *D sky130_fd_sc_hd__and2b_1
*I *87:B I *D sky130_fd_sc_hd__xor2_1
*I *84:X O *D sky130_fd_sc_hd__or4_1
*CAP
1 *85:B 0.000128634
2 *87:B 2.09808e-05
3 *84:X 0.000166086
4 *23:6 0.000315701
5 *85:B *82:A 7.31494e-05
6 *85:B *87:A 4.30166e-05
7 *85:B *109:A 0.000160314
8 *23:6 *82:A 1.77665e-05
9 *23:6 *84:A 4.41506e-05
10 *23:6 *40:16 4.66108e-05
11 *84:D *23:6 1.41165e-05
12 *85:A_N *85:B 0.000121038
*RES
1 *84:X *23:6 4.12 
2 *23:6 *87:B 1.96 
3 *23:6 *85:B 4.81 
*END

*D_NET *24 0.000888195
*CONN
*I *86:A I *D sky130_fd_sc_hd__clkbuf_1
*I *85:X O *D sky130_fd_sc_hd__and2b_1
*CAP
1 *86:A 0.000371116
2 *85:X 0.000371116
3 *86:A *82:A 0.000117265
4 *86:A *107:A 2.86975e-05
*RES
1 *85:X *86:A 12.135 
*END

*D_NET *25 0.000535856
*CONN
*I *91:A I *D sky130_fd_sc_hd__and2_1
*I *93:A2 I *D sky130_fd_sc_hd__a21boi_1
*I *89:X O *D sky130_fd_sc_hd__or3_1
*CAP
1 *91:A 6.12722e-06
2 *93:A2 0
3 *89:X 9.54864e-05
4 *25:12 0.000101614
5 *91:A *91:B 4.89295e-05
6 *91:A *105:A 3.75126e-05
7 *25:12 *91:B 8.60799e-05
8 *25:12 *93:A1 7.4027e-05
9 *25:12 *105:A 8.60799e-05
*RES
1 *89:X *25:12 7.775 
2 *25:12 *93:A2 1.6 
3 *25:12 *91:A 2.05 
*END

*D_NET *26 0.00125374
*CONN
*I *91:B I *D sky130_fd_sc_hd__and2_1
*I *90:Y O *D sky130_fd_sc_hd__o21ai_1
*CAP
1 *91:B 0.000295765
2 *90:Y 0.000295765
3 *91:B *89:B 2.56752e-06
4 *91:B *105:A 5.35253e-05
5 *91:B *28:40 0.000274436
6 *91:B *36:16 7.45273e-05
7 *91:B *37:6 7.35638e-05
8 *91:B *37:12 4.85763e-05
9 *91:A *91:B 4.89295e-05
10 *25:12 *91:B 8.60799e-05
*RES
1 *90:Y *91:B 13.155 
*END

*D_NET *27 0.00019372
*CONN
*I *92:A I *D sky130_fd_sc_hd__clkbuf_1
*I *91:X O *D sky130_fd_sc_hd__and2_1
*CAP
1 *92:A 2.07634e-05
2 *91:X 2.07634e-05
3 *92:A *105:A 7.60965e-05
4 *92:A *28:40 7.60965e-05
*RES
1 *91:X *92:A 4.34 
*END

*D_NET *28 0.00287315
*CONN
*I *90:A2 I *D sky130_fd_sc_hd__o21ai_1
*I *88:B I *D sky130_fd_sc_hd__xor2_1
*I *94:A I *D sky130_fd_sc_hd__clkbuf_1
*I *78:D I *D sky130_fd_sc_hd__or4_2
*I *89:C I *D sky130_fd_sc_hd__or3_1
*I *95:X O *D sky130_fd_sc_hd__buf_1
*CAP
1 *90:A2 6.03531e-05
2 *88:B 9.70475e-05
3 *94:A 2.08954e-05
4 *78:D 0
5 *89:C 0.000101034
6 *95:X 6.98591e-05
7 *28:40 0.000359425
8 *28:20 0.000144664
9 *28:14 0.000374177
10 *28:6 0.000219278
11 *88:B *88:A 0.000237713
12 *88:B *105:A 1.61831e-05
13 *88:B *110:A 3.00381e-05
14 *89:C *89:B 0.000155721
15 *90:A2 *90:A1 1.19928e-05
16 *90:A2 *37:12 4.75991e-05
17 *28:6 *90:A1 1.56428e-05
18 *28:14 *89:A 3.02745e-05
19 *28:14 *90:A1 0.000177153
20 *28:14 *36:16 8.52883e-05
21 *28:14 *37:12 6.1197e-05
22 *28:40 *105:A 3.10206e-05
23 *28:40 *36:16 0.000120923
24 *91:B *28:40 0.000274436
25 *92:A *28:40 7.60965e-05
26 *93:B1_N *28:14 8.34281e-06
27 *93:B1_N *28:20 3.59921e-05
28 *97:A *28:6 1.08036e-05
*RES
1 *95:X *28:6 2.395 
2 *28:6 *28:14 6.61 
3 *28:14 *28:20 1.17 
4 *28:20 *89:C 7.49 
5 *28:20 *78:D 1.6 
6 *28:14 *28:40 5.295 
7 *28:40 *94:A 1.96 
8 *28:40 *88:B 4.12 
9 *28:6 *90:A2 2.395 
*END

*D_NET *29 0.000415557
*CONN
*I *103:A I *D sky130_fd_sc_hd__buf_2
*I *88:X O *D sky130_fd_sc_hd__xor2_1
*CAP
1 *103:A 0.000127862
2 *88:X 0.000127862
3 *103:A *110:A 0.000159833
*RES
1 *88:X *103:A 9.63 
*END

*D_NET *30 0.00033182
*CONN
*I *104:A I *D sky130_fd_sc_hd__buf_2
*I *92:X O *D sky130_fd_sc_hd__clkbuf_1
*CAP
1 *104:A 0.000146306
2 *92:X 0.000146306
3 *104:A *88:A 3.33763e-05
4 out[2] *104:A 5.83121e-06
*RES
1 *92:X *104:A 9.63 
*END

*D_NET *31 0.0017177
*CONN
*I *105:A I *D sky130_fd_sc_hd__buf_2
*I *93:Y O *D sky130_fd_sc_hd__a21boi_1
*CAP
1 *105:A 0.000606511
2 *93:Y 0.000606511
3 *105:A *88:A 0.000162609
4 out[3] *105:A 2.40647e-05
5 *88:B *105:A 1.61831e-05
6 *91:A *105:A 3.75126e-05
7 *91:B *105:A 5.35253e-05
8 *92:A *105:A 7.60965e-05
9 *93:B1_N *105:A 1.75875e-05
10 *25:12 *105:A 8.60799e-05
11 *28:40 *105:A 3.10206e-05
*RES
1 *93:Y *105:A 16.41 
*END

*D_NET *32 0.000410293
*CONN
*I *106:A I *D sky130_fd_sc_hd__buf_2
*I *81:Y O *D sky130_fd_sc_hd__nor2_1
*CAP
1 *106:A 0.000203321
2 *81:Y 0.000203321
3 out[4] *106:A 3.64998e-06
*RES
1 *81:Y *106:A 10.32 
*END

*D_NET *33 0.000251671
*CONN
*I *107:A I *D sky130_fd_sc_hd__buf_2
*I *82:Y O *D sky130_fd_sc_hd__xnor2_1
*CAP
1 *107:A 0.000111487
2 *82:Y 0.000111487
3 *86:A *107:A 2.86975e-05
*RES
1 *82:Y *107:A 4.955 
*END

*D_NET *34 0.000853752
*CONN
*I *108:A I *D sky130_fd_sc_hd__buf_2
*I *86:X O *D sky130_fd_sc_hd__clkbuf_1
*CAP
1 *108:A 0.000417443
2 *86:X 0.000417443
3 out[5] *108:A 1.88656e-05
*RES
1 *86:X *108:A 13.155 
*END

*D_NET *35 0.00109399
*CONN
*I *109:A I *D sky130_fd_sc_hd__buf_2
*I *87:X O *D sky130_fd_sc_hd__xor2_1
*CAP
1 *109:A 0.000457363
2 *87:X 0.000457363
3 *109:A *82:A 1.31227e-05
4 *109:A *87:A 0
5 *85:B *109:A 0.000160314
6 *102:A *109:A 5.83121e-06
*RES
1 *87:X *109:A 13.875 
*END

*D_NET *36 0.0038185
*CONN
*I *88:A I *D sky130_fd_sc_hd__xor2_1
*I *78:C I *D sky130_fd_sc_hd__or4_2
*I *90:A1 I *D sky130_fd_sc_hd__o21ai_1
*I *89:B I *D sky130_fd_sc_hd__or3_1
*I *96:X O *D sky130_fd_sc_hd__buf_1
*CAP
1 *88:A 0.000530068
2 *78:C 0
3 *90:A1 0.00018399
4 *89:B 0.000142581
5 *96:X 0
6 *36:29 0.00018399
7 *36:16 0.000357817
8 *36:4 0.000745303
9 *88:A *110:A 3.72007e-05
10 *88:A *37:6 4.77807e-05
11 *89:B *89:A 0.000223541
12 *89:B *39:8 9.09788e-06
13 *90:A1 *89:A 1.15688e-05
14 *90:A1 *37:12 1.79641e-05
15 *36:16 *89:A 4.16495e-05
16 *36:16 *37:12 9.09788e-06
17 out[2] *88:A 3.97604e-06
18 *88:B *88:A 0.000237713
19 *89:C *89:B 0.000155721
20 *90:A2 *90:A1 1.19928e-05
21 *91:B *89:B 2.56752e-06
22 *91:B *36:16 7.45273e-05
23 *93:B1_N *90:A1 6.33103e-05
24 *95:A *90:A1 3.75882e-06
25 *97:A *88:A 2.34495e-05
26 *97:A *90:A1 8.52977e-05
27 *104:A *88:A 3.33763e-05
28 *105:A *88:A 0.000162609
29 *19:8 *90:A1 5.83121e-06
30 *19:12 *89:B 1.37112e-05
31 *28:6 *90:A1 1.56428e-05
32 *28:14 *90:A1 0.000177153
33 *28:14 *36:16 8.52883e-05
34 *28:40 *36:16 0.000120923
*RES
1 *96:X *36:4 1.6 
2 *36:4 *36:16 9.315 
3 *36:16 *89:B 6.96 
4 *36:16 *36:29 2 
5 *36:29 *90:A1 9.68 
6 *36:29 *78:C 1.6 
7 *36:4 *88:A 14 
*END

*D_NET *37 0.00153546
*CONN
*I *90:B1 I *D sky130_fd_sc_hd__o21ai_1
*I *78:B I *D sky130_fd_sc_hd__or4_2
*I *89:A I *D sky130_fd_sc_hd__or3_1
*I *97:X O *D sky130_fd_sc_hd__clkbuf_1
*CAP
1 *90:B1 2.09808e-05
2 *78:B 0
3 *89:A 0.000134871
4 *97:X 4.28659e-05
5 *37:12 0.000226594
6 *37:6 0.00015557
7 *89:A *78:A 0.000139252
8 *89:A *93:A1 6.80137e-05
9 *88:A *37:6 4.77807e-05
10 *89:B *89:A 0.000223541
11 *90:A1 *89:A 1.15688e-05
12 *90:A1 *37:12 1.79641e-05
13 *90:A2 *37:12 4.75991e-05
14 *91:B *37:6 7.35638e-05
15 *91:B *37:12 4.85763e-05
16 *97:A *37:6 6.59619e-05
17 *97:A *37:12 4.4587e-05
18 *19:12 *89:A 2.39546e-05
19 *28:14 *89:A 3.02745e-05
20 *28:14 *37:12 6.1197e-05
21 *36:16 *89:A 4.16495e-05
22 *36:16 *37:12 9.09788e-06
*RES
1 *97:X *37:6 3.085 
2 *37:6 *37:12 4.265 
3 *37:12 *89:A 7.65 
4 *37:12 *78:B 3.6 
5 *37:6 *90:B1 1.96 
*END

*D_NET *38 0.00118484
*CONN
*I *93:A1 I *D sky130_fd_sc_hd__a21boi_1
*I *78:A I *D sky130_fd_sc_hd__or4_2
*I *98:X O *D sky130_fd_sc_hd__clkbuf_1
*CAP
1 *93:A1 0.000259714
2 *78:A 4.35421e-05
3 *98:X 7.66291e-05
4 *38:8 0.000379885
5 *89:A *78:A 0.000139252
6 *89:A *93:A1 6.80137e-05
7 *99:A *38:8 2.69153e-05
8 *19:12 *78:A 0.00011686
9 *25:12 *93:A1 7.4027e-05
*RES
1 *98:X *38:8 2.755 
2 *38:8 *78:A 7.235 
3 *38:8 *93:A1 9.59 
*END

*D_NET *39 0.00227937
*CONN
*I *79:A I *D sky130_fd_sc_hd__nor2_1
*I *80:A I *D sky130_fd_sc_hd__and2_1
*I *84:A I *D sky130_fd_sc_hd__or4_1
*I *83:A1 I *D sky130_fd_sc_hd__o31a_1
*I *99:X O *D sky130_fd_sc_hd__buf_1
*CAP
1 *79:A 0
2 *80:A 0.000150088
3 *84:A 3.5796e-05
4 *83:A1 0.000150071
5 *99:X 7.00288e-05
6 *39:40 0.000268015
7 *39:14 0.000287511
8 *39:8 0.000289601
9 *83:A1 *83:A2 0.00011497
10 *83:A1 *83:B1 5.16348e-05
11 *83:A1 *84:C 0.000136519
12 *83:A1 *40:16 3.43232e-05
13 *39:14 *40:10 8.25041e-05
14 *39:14 *40:16 2.39256e-05
15 *83:A3 *83:A1 1.10951e-05
16 *83:A3 *39:14 1.44465e-05
17 *84:D *84:A 4.77769e-05
18 *89:B *39:8 9.09788e-06
19 *19:12 *39:8 7.23237e-05
20 *19:12 *39:14 1.64141e-05
21 *19:14 *39:14 5.87002e-05
22 *19:42 *39:40 0.000310383
23 *23:6 *84:A 4.41506e-05
*RES
1 *99:X *39:8 5.235 
2 *39:8 *39:14 2.445 
3 *39:14 *83:A1 7.155 
4 *39:14 *84:A 4.395 
5 *39:8 *39:40 4.865 
6 *39:40 *80:A 7.205 
7 *39:40 *79:A 1.6 
*END

*D_NET *40 0.00216957
*CONN
*I *82:A I *D sky130_fd_sc_hd__xnor2_1
*I *84:B I *D sky130_fd_sc_hd__or4_1
*I *83:A2 I *D sky130_fd_sc_hd__o31a_1
*I *100:X O *D sky130_fd_sc_hd__buf_1
*CAP
1 *82:A 0.000325419
2 *84:B 0
3 *83:A2 6.24368e-05
4 *100:X 0.000176608
5 *40:16 0.000170334
6 *40:10 0.000609924
7 *82:A *87:A 0.000160319
8 *83:A1 *83:A2 0.00011497
9 *83:A1 *40:16 3.43232e-05
10 *85:A_N *82:A 2.10214e-05
11 *85:A_N *40:16 0
12 *85:B *82:A 7.31494e-05
13 *86:A *82:A 0.000117265
14 *109:A *82:A 1.31227e-05
15 *19:42 *40:10 0.000119873
16 *23:6 *82:A 1.77665e-05
17 *23:6 *40:16 4.66108e-05
18 *39:14 *40:10 8.25041e-05
19 *39:14 *40:16 2.39256e-05
*RES
1 *100:X *40:10 6.21 
2 *40:10 *40:16 3.575 
3 *40:16 *83:A2 6.98 
4 *40:16 *84:B 1.6 
5 *40:10 *82:A 10.035 
*END

*D_NET *41 0.000857
*CONN
*I *84:C I *D sky130_fd_sc_hd__or4_1
*I *83:B1 I *D sky130_fd_sc_hd__o31a_1
*I *101:X O *D sky130_fd_sc_hd__clkbuf_1
*CAP
1 *84:C 3.67884e-05
2 *83:B1 1.95389e-05
3 *101:X 0.000112273
4 *41:8 0.000168601
5 *83:A1 *83:B1 5.16348e-05
6 *83:A1 *84:C 0.000136519
7 *83:A3 *83:B1 3.09233e-05
8 *83:A3 *84:C 0.000128676
9 *83:A3 *41:8 4.66108e-05
10 *85:A_N *41:8 4.89295e-05
11 *101:A *41:8 7.65058e-05
*RES
1 *101:X *41:8 5.775 
2 *41:8 *83:B1 4.215 
3 *41:8 *84:C 5.235 
*END

*D_NET *42 0.000599187
*CONN
*I *87:A I *D sky130_fd_sc_hd__xor2_1
*I *102:X O *D sky130_fd_sc_hd__clkbuf_1
*CAP
1 *87:A 0.000127282
2 *102:X 0.000127282
3 *82:A *87:A 0.000160319
4 *85:A_N *87:A 0.000141286
5 *85:B *87:A 4.30166e-05
6 *109:A *87:A 0
*RES
1 *102:X *87:A 10.32 
*END

*D_NET *43 0.000642394
*CONN
*I *110:A I *D sky130_fd_sc_hd__clkbuf_4
*I *94:X O *D sky130_fd_sc_hd__clkbuf_1
*CAP
1 *110:A 0.000207661
2 *94:X 0.000207661
3 *88:A *110:A 3.72007e-05
4 *88:B *110:A 3.00381e-05
5 *103:A *110:A 0.000159833
*RES
1 *94:X *110:A 10.875 
*END
