*SPEF "ieee 1481-1999"
*DESIGN "cpu_top"
*DATE "19:44:41 Sunday June 08, 2025"
*VENDOR "The OpenROAD Project"
*PROGRAM "OpenROAD"
*VERSION "b16bda7e82721d10566ff7e2b68f1ff0be9f9e38"
*DESIGN_FLOW "NAME_SCOPE LOCAL" "PIN_CAP NONE"
*DIVIDER /
*DELIMITER :
*BUS_DELIMITER []
*T_UNIT 1 NS
*C_UNIT 1 PF
*R_UNIT 1 OHM
*L_UNIT 1 HENRY

*NAME_MAP
*3 an[0]
*4 an[1]
*5 an[2]
*6 an[3]
*7 an[4]
*8 an[5]
*9 an[6]
*10 an[7]
*11 clk
*12 net16
*13 cx[1]
*14 cx[2]
*15 cx[3]
*16 cx[4]
*17 cx[5]
*18 cx[6]
*19 cx[7]
*20 reset
*21 U7\.current_digit\[0\]
*22 U7\.current_digit\[1\]
*23 U7\.current_digit\[2\]
*24 U7\.current_digit\[3\]
*25 U7\.digit_counter\[0\]
*26 U7\.digit_counter\[1\]
*27 U7\.digit_counter\[2\]
*28 U7\.digit_counter\[3\]
*29 U7\.temp\[0\]
*30 _000_
*31 _001_
*32 _002_
*33 _003_
*34 _004_
*35 _005_
*36 _006_
*37 _007_
*38 _008_
*39 _009_
*40 _010_
*41 _011_
*42 _012_
*43 _013_
*44 _014_
*45 _015_
*46 _016_
*47 _017_
*48 _018_
*49 _019_
*50 _020_
*51 _021_
*52 _022_
*53 _023_
*54 _024_
*55 _025_
*56 _026_
*57 _027_
*58 _028_
*59 _029_
*60 _030_
*61 _031_
*62 _032_
*63 _033_
*64 _034_
*65 _035_
*66 _036_
*67 _037_
*68 _038_
*69 _039_
*70 _040_
*71 _041_
*72 _042_
*73 _043_
*74 _044_
*75 _045_
*76 _046_
*77 _047_
*78 _048_
*79 _049_
*80 _050_
*81 _051_
*82 _052_
*83 _053_
*84 _054_
*85 _055_
*86 _056_
*87 _057_
*88 _058_
*89 _059_
*90 _060_
*91 _061_
*92 _062_
*93 _063_
*94 clknet_0_clk
*95 clknet_1_0__leaf_clk
*96 clknet_1_1__leaf_clk
*97 net1
*98 net10
*99 net11
*100 net12
*101 net13
*102 net14
*103 net15
*104 net17
*105 net18
*106 net19
*107 net2
*108 net20
*109 net21
*110 net22
*111 net23
*112 net24
*113 net25
*114 net26
*115 net27
*116 net28
*117 net29
*118 net3
*119 net30
*120 net31
*121 net32
*122 net33
*123 net34
*124 net4
*125 net5
*126 net6
*127 net7
*128 net8
*129 net9
*130 FILLER_0_0_111
*131 FILLER_0_0_15
*132 FILLER_0_0_27
*133 FILLER_0_0_29
*134 FILLER_0_0_3
*135 FILLER_0_0_41
*136 FILLER_0_0_53
*137 FILLER_0_0_57
*138 FILLER_0_0_93
*139 FILLER_0_10_111
*140 FILLER_0_10_15
*141 FILLER_0_10_27
*142 FILLER_0_10_29
*143 FILLER_0_10_3
*144 FILLER_0_10_41
*145 FILLER_0_10_45
*146 FILLER_0_10_62
*147 FILLER_0_11_15
*148 FILLER_0_11_27
*149 FILLER_0_11_3
*150 FILLER_0_11_39
*151 FILLER_0_11_51
*152 FILLER_0_11_95
*153 FILLER_0_12_15
*154 FILLER_0_12_27
*155 FILLER_0_12_29
*156 FILLER_0_12_3
*157 FILLER_0_12_41
*158 FILLER_0_12_53
*159 FILLER_0_12_77
*160 FILLER_0_12_83
*161 FILLER_0_12_95
*162 FILLER_0_13_15
*163 FILLER_0_13_27
*164 FILLER_0_13_3
*165 FILLER_0_13_39
*166 FILLER_0_13_51
*167 FILLER_0_13_55
*168 FILLER_0_13_57
*169 FILLER_0_13_71
*170 FILLER_0_13_77
*171 FILLER_0_13_98
*172 FILLER_0_14_15
*173 FILLER_0_14_27
*174 FILLER_0_14_29
*175 FILLER_0_14_3
*176 FILLER_0_14_41
*177 FILLER_0_14_53
*178 FILLER_0_14_69
*179 FILLER_0_14_76
*180 FILLER_0_15_111
*181 FILLER_0_15_15
*182 FILLER_0_15_27
*183 FILLER_0_15_3
*184 FILLER_0_15_39
*185 FILLER_0_15_51
*186 FILLER_0_15_55
*187 FILLER_0_15_57
*188 FILLER_0_15_65
*189 FILLER_0_15_84
*190 FILLER_0_15_94
*191 FILLER_0_16_111
*192 FILLER_0_16_15
*193 FILLER_0_16_27
*194 FILLER_0_16_29
*195 FILLER_0_16_3
*196 FILLER_0_16_41
*197 FILLER_0_16_82
*198 FILLER_0_17_107
*199 FILLER_0_17_15
*200 FILLER_0_17_27
*201 FILLER_0_17_3
*202 FILLER_0_17_39
*203 FILLER_0_17_51
*204 FILLER_0_17_55
*205 FILLER_0_17_57
*206 FILLER_0_17_65
*207 FILLER_0_18_107
*208 FILLER_0_18_15
*209 FILLER_0_18_27
*210 FILLER_0_18_29
*211 FILLER_0_18_3
*212 FILLER_0_18_41
*213 FILLER_0_18_53
*214 FILLER_0_18_57
*215 FILLER_0_18_69
*216 FILLER_0_18_75
*217 FILLER_0_1_15
*218 FILLER_0_1_27
*219 FILLER_0_1_3
*220 FILLER_0_1_39
*221 FILLER_0_1_51
*222 FILLER_0_1_55
*223 FILLER_0_1_57
*224 FILLER_0_2_111
*225 FILLER_0_2_15
*226 FILLER_0_2_27
*227 FILLER_0_2_29
*228 FILLER_0_2_3
*229 FILLER_0_2_41
*230 FILLER_0_2_53
*231 FILLER_0_2_93
*232 FILLER_0_3_110
*233 FILLER_0_3_15
*234 FILLER_0_3_27
*235 FILLER_0_3_3
*236 FILLER_0_3_39
*237 FILLER_0_3_47
*238 FILLER_0_4_15
*239 FILLER_0_4_27
*240 FILLER_0_4_29
*241 FILLER_0_4_3
*242 FILLER_0_4_41
*243 FILLER_0_4_53
*244 FILLER_0_5_15
*245 FILLER_0_5_27
*246 FILLER_0_5_3
*247 FILLER_0_5_39
*248 FILLER_0_5_51
*249 FILLER_0_5_55
*250 FILLER_0_5_57
*251 FILLER_0_5_78
*252 FILLER_0_6_15
*253 FILLER_0_6_27
*254 FILLER_0_6_29
*255 FILLER_0_6_3
*256 FILLER_0_6_41
*257 FILLER_0_6_53
*258 FILLER_0_7_15
*259 FILLER_0_7_27
*260 FILLER_0_7_3
*261 FILLER_0_7_39
*262 FILLER_0_7_51
*263 FILLER_0_7_55
*264 FILLER_0_7_57
*265 FILLER_0_8_111
*266 FILLER_0_8_15
*267 FILLER_0_8_27
*268 FILLER_0_8_29
*269 FILLER_0_8_3
*270 FILLER_0_8_41
*271 FILLER_0_8_53
*272 FILLER_0_8_95
*273 FILLER_0_9_107
*274 FILLER_0_9_15
*275 FILLER_0_9_27
*276 FILLER_0_9_3
*277 FILLER_0_9_39
*278 FILLER_0_9_51
*279 FILLER_0_9_57
*280 FILLER_0_9_69
*281 FILLER_0_9_90
*282 PHY_EDGE_ROW_0_Left_19
*283 PHY_EDGE_ROW_0_Right_0
*284 PHY_EDGE_ROW_10_Left_29
*285 PHY_EDGE_ROW_10_Right_10
*286 PHY_EDGE_ROW_11_Left_30
*287 PHY_EDGE_ROW_11_Right_11
*288 PHY_EDGE_ROW_12_Left_31
*289 PHY_EDGE_ROW_12_Right_12
*290 PHY_EDGE_ROW_13_Left_32
*291 PHY_EDGE_ROW_13_Right_13
*292 PHY_EDGE_ROW_14_Left_33
*293 PHY_EDGE_ROW_14_Right_14
*294 PHY_EDGE_ROW_15_Left_34
*295 PHY_EDGE_ROW_15_Right_15
*296 PHY_EDGE_ROW_16_Left_35
*297 PHY_EDGE_ROW_16_Right_16
*298 PHY_EDGE_ROW_17_Left_36
*299 PHY_EDGE_ROW_17_Right_17
*300 PHY_EDGE_ROW_18_Left_37
*301 PHY_EDGE_ROW_18_Right_18
*302 PHY_EDGE_ROW_1_Left_20
*303 PHY_EDGE_ROW_1_Right_1
*304 PHY_EDGE_ROW_2_Left_21
*305 PHY_EDGE_ROW_2_Right_2
*306 PHY_EDGE_ROW_3_Left_22
*307 PHY_EDGE_ROW_3_Right_3
*308 PHY_EDGE_ROW_4_Left_23
*309 PHY_EDGE_ROW_4_Right_4
*310 PHY_EDGE_ROW_5_Left_24
*311 PHY_EDGE_ROW_5_Right_5
*312 PHY_EDGE_ROW_6_Left_25
*313 PHY_EDGE_ROW_6_Right_6
*314 PHY_EDGE_ROW_7_Left_26
*315 PHY_EDGE_ROW_7_Right_7
*316 PHY_EDGE_ROW_8_Left_27
*317 PHY_EDGE_ROW_8_Right_8
*318 PHY_EDGE_ROW_9_Left_28
*319 PHY_EDGE_ROW_9_Right_9
*320 TAP_TAPCELL_ROW_0_38
*321 TAP_TAPCELL_ROW_0_39
*322 TAP_TAPCELL_ROW_0_40
*323 TAP_TAPCELL_ROW_0_41
*324 TAP_TAPCELL_ROW_10_60
*325 TAP_TAPCELL_ROW_10_61
*326 TAP_TAPCELL_ROW_11_62
*327 TAP_TAPCELL_ROW_11_63
*328 TAP_TAPCELL_ROW_12_64
*329 TAP_TAPCELL_ROW_12_65
*330 TAP_TAPCELL_ROW_13_66
*331 TAP_TAPCELL_ROW_13_67
*332 TAP_TAPCELL_ROW_14_68
*333 TAP_TAPCELL_ROW_14_69
*334 TAP_TAPCELL_ROW_15_70
*335 TAP_TAPCELL_ROW_15_71
*336 TAP_TAPCELL_ROW_16_72
*337 TAP_TAPCELL_ROW_16_73
*338 TAP_TAPCELL_ROW_17_74
*339 TAP_TAPCELL_ROW_17_75
*340 TAP_TAPCELL_ROW_18_76
*341 TAP_TAPCELL_ROW_18_77
*342 TAP_TAPCELL_ROW_18_78
*343 TAP_TAPCELL_ROW_18_79
*344 TAP_TAPCELL_ROW_1_42
*345 TAP_TAPCELL_ROW_1_43
*346 TAP_TAPCELL_ROW_2_44
*347 TAP_TAPCELL_ROW_2_45
*348 TAP_TAPCELL_ROW_3_46
*349 TAP_TAPCELL_ROW_3_47
*350 TAP_TAPCELL_ROW_4_48
*351 TAP_TAPCELL_ROW_4_49
*352 TAP_TAPCELL_ROW_5_50
*353 TAP_TAPCELL_ROW_5_51
*354 TAP_TAPCELL_ROW_6_52
*355 TAP_TAPCELL_ROW_6_53
*356 TAP_TAPCELL_ROW_7_54
*357 TAP_TAPCELL_ROW_7_55
*358 TAP_TAPCELL_ROW_8_56
*359 TAP_TAPCELL_ROW_8_57
*360 TAP_TAPCELL_ROW_9_58
*361 TAP_TAPCELL_ROW_9_59
*362 _064_
*363 _065_
*364 _066_
*365 _067_
*366 _068_
*367 _069_
*368 _070_
*369 _071_
*370 _072_
*371 _073_
*372 _074_
*373 _075_
*374 _076_
*375 _077_
*376 _078_
*377 _079_
*378 _080_
*379 _081_
*380 _082_
*381 _083_
*382 _084_
*383 _085_
*384 _086_
*385 _087_
*386 _088_
*387 _089_
*388 _090_
*389 _091_
*390 _092_
*391 _093_
*392 _094_
*393 _095_
*394 _096_
*395 _097_
*396 _098_
*397 _099_
*398 _100_
*399 _101_
*400 _102_
*401 _103_
*402 _104_
*403 _105_
*404 _106_
*405 _107_
*406 _108_
*407 _109_
*408 _110_
*409 _111_
*410 _112_
*411 _113_
*412 _114_
*413 _115_
*414 _116_
*415 _117_
*416 _118_
*417 _119_
*418 _120_
*419 _121_
*420 _122_
*421 _123_
*422 _124_
*423 _125_
*424 _126_
*425 _127_
*426 _128_
*427 _129_
*428 _130_
*429 _131_
*430 _132_
*431 _133_
*432 _134_
*433 _135_
*434 _136_
*435 _137_
*436 _138_
*437 _139_
*438 _140_
*439 _141_
*440 _142_
*441 _143_
*442 _144_
*443 _145_
*444 _146_
*445 _147_
*446 _148_
*447 _149_
*448 _150_
*449 _151_
*450 clkbuf_0_clk
*451 clkbuf_1_0__f_clk
*452 clkbuf_1_1__f_clk
*453 cpu_top_16
*454 hold1
*455 hold10
*456 hold11
*457 hold12
*458 hold13
*459 hold14
*460 hold15
*461 hold16
*462 hold17
*463 hold18
*464 hold2
*465 hold3
*466 hold4
*467 hold5
*468 hold6
*469 hold7
*470 hold8
*471 hold9
*472 output1
*473 output10
*474 output11
*475 output12
*476 output13
*477 output14
*478 output15
*479 output2
*480 output3
*481 output4
*482 output5
*483 output6
*484 output7
*485 output8
*486 output9

*PORTS
an[0] O
an[1] O
an[2] O
an[3] O
an[4] O
an[5] O
an[6] O
an[7] O
clk I
cx[0] O
cx[1] O
cx[2] O
cx[3] O
cx[4] O
cx[5] O
cx[6] O
cx[7] O
reset I

*D_NET *3 0.00275701
*CONN
*P an[0] O
*I *472:X O *D sky130_fd_sc_hd__buf_2
*CAP
1 an[0] 0.00100298
2 *472:X 0.000317103
3 *3:10 0.00132008
4 an[0] an[1] 0
5 *3:10 *479:A 9.62958e-05
6 *3:10 *4:10 2.05503e-05
*RES
1 *472:X *3:10 43.6446 
2 *3:10 an[0] 11.8491 
*END

*D_NET *4 0.00407985
*CONN
*P an[1] O
*I *479:X O *D sky130_fd_sc_hd__buf_2
*CAP
1 an[1] 0.00155985
2 *479:X 0.000248912
3 *4:10 0.00180876
4 an[1] an[2] 0
5 an[1] *95:34 0
6 an[1] *107:8 0.000105993
7 *4:10 *26:12 0.000277167
8 *4:10 *97:29 5.86204e-05
9 an[0] an[1] 0
10 *3:10 *4:10 2.05503e-05
*RES
1 *479:X *4:10 42.7332 
2 *4:10 an[1] 11.9349 
*END

*D_NET *5 0.00314113
*CONN
*P an[2] O
*I *480:X O *D sky130_fd_sc_hd__buf_2
*CAP
1 an[2] 0.000734046
2 *480:X 0.000509149
3 *5:14 0.0012432
4 an[2] an[3] 0
5 *5:14 *480:A 0
6 *5:14 *46:14 7.99859e-05
7 *5:14 *87:23 6.99589e-05
8 *5:14 *93:45 0
9 *5:14 *95:12 1.14452e-05
10 *5:14 *95:16 0.000426313
11 *5:14 *105:8 0
12 *5:14 *111:8 0
13 *5:14 *126:28 6.70361e-05
14 *5:14 *126:43 0
15 an[1] an[2] 0
*RES
1 *480:X *5:14 48.6368 
2 *5:14 an[2] 9.96 
*END

*D_NET *6 0.00330488
*CONN
*P an[3] O
*I *481:X O *D sky130_fd_sc_hd__buf_2
*CAP
1 an[3] 0.000437904
2 *481:X 0.00077107
3 *6:8 0.00120897
4 an[3] an[4] 0
5 an[3] an[5] 0.000283114
6 an[3] *47:14 8.44863e-05
7 an[3] *126:43 3.39417e-05
8 *6:8 *444:CLK 5.5792e-05
9 *6:8 *444:D 1.64354e-05
10 *6:8 *466:A 5.58003e-05
11 *6:8 *26:85 6.92876e-05
12 *6:8 *97:6 0.000175155
13 *6:8 *125:28 1.24376e-05
14 *6:8 *126:43 0.000100486
15 an[2] an[3] 0
*RES
1 *481:X *6:8 36.9821 
2 *6:8 an[3] 28.2101 
*END

*D_NET *7 0.00663307
*CONN
*P an[4] O
*I *482:X O *D sky130_fd_sc_hd__buf_2
*CAP
1 an[4] 0.00208995
2 *482:X 0.000407886
3 *7:10 0.00249783
4 an[4] an[5] 0
5 an[4] *50:18 9.43852e-05
6 an[4] *91:43 4.66131e-05
7 an[4] *126:28 0.000905474
8 *7:10 *407:A 0
9 *7:10 *438:D 5.8118e-05
10 *7:10 *41:19 0.000242268
11 *7:10 *41:25 8.57577e-05
12 *7:10 *42:8 2.34077e-05
13 *7:10 *85:43 0
14 *7:10 *85:51 2.10609e-05
15 *7:10 *91:43 2.27289e-05
16 *7:10 *95:77 0
17 *7:10 *97:16 0.000137594
18 an[3] an[4] 0
*RES
1 *482:X *7:10 46.6896 
2 *7:10 an[4] 13.0512 
*END

*D_NET *8 0.00210399
*CONN
*P an[5] O
*I *483:X O *D sky130_fd_sc_hd__buf_2
*CAP
1 an[5] 0.000807159
2 *483:X 0
3 *8:6 0.000807159
4 an[5] an[6] 0
5 an[5] *47:14 0.000195989
6 an[5] *50:18 1.05658e-05
7 an[3] an[5] 0.000283114
8 an[4] an[5] 0
*RES
1 *483:X *8:6 38 
2 *8:6 an[5] 21.2235 
*END

*D_NET *9 0.00573825
*CONN
*P an[6] O
*I *484:X O *D sky130_fd_sc_hd__buf_2
*CAP
1 an[6] 0.00169141
2 *484:X 0.000470459
3 *9:8 0.00216187
4 an[6] an[7] 0
5 an[6] *40:34 0
6 an[6] *54:18 0
7 an[6] *55:97 3.47002e-05
8 an[6] *61:20 0.000166387
9 an[6] *74:20 0.000542743
10 an[6] *88:14 5.52508e-05
11 an[6] *90:50 8.13269e-06
12 an[6] *91:12 0.000195188
13 an[6] *96:68 0.00033428
14 an[6] *113:14 2.95125e-05
15 an[6] *121:10 4.83192e-05
16 an[5] an[6] 0
*RES
1 *484:X *9:8 42.9093 
2 *9:8 an[6] 26.3764 
*END

*D_NET *10 0.000590052
*CONN
*P an[7] O
*I *485:X O *D sky130_fd_sc_hd__buf_2
*CAP
1 an[7] 0.000277743
2 *485:X 0.000277743
3 an[7] cx[0] 0
4 an[7] *109:8 9.86551e-06
5 an[7] *128:21 2.47015e-05
6 an[6] an[7] 0
*RES
1 *485:X an[7] 47.2507 
*END

*D_NET *11 0.00840749
*CONN
*P clk I
*I *450:A I *D sky130_fd_sc_hd__clkbuf_16
*CAP
1 clk 0.00407407
2 *450:A 0
3 *11:17 0.00407407
4 *11:17 *28:18 0
5 *11:17 *28:37 1.01436e-05
6 *11:17 *50:18 0.000203137
7 *11:17 *55:76 0
8 *11:17 *90:50 3.91292e-05
9 *11:17 *95:34 6.93618e-06
*RES
1 clk *11:17 35.8781 
2 *11:17 *450:A 38 
*END

*D_NET *12 0.00594189
*CONN
*P cx[0] O
*I *453:HI O *D sky130_fd_sc_hd__conb_1
*CAP
1 cx[0] 0.00163077
2 *453:HI 0.000399059
3 *12:8 0.00202983
4 cx[0] cx[1] 0
5 cx[0] *375:A2 2.23467e-05
6 cx[0] *57:8 0.000265141
7 cx[0] *66:18 0.000126626
8 cx[0] *90:50 0
9 *12:8 *458:A 2.4754e-05
10 *12:8 *21:22 0.000365926
11 *12:8 *28:18 0.000229174
12 *12:8 *55:40 0.000660799
13 *12:8 *55:46 0.000141165
14 *12:8 *58:10 8.39585e-06
15 *12:8 *94:12 2.19998e-05
16 *12:8 *117:23 1.59071e-05
17 an[7] cx[0] 0
*RES
1 *453:HI *12:8 35.5529 
2 *12:8 cx[0] 30.3481 
*END

*D_NET *13 0.00121073
*CONN
*P cx[1] O
*I *486:X O *D sky130_fd_sc_hd__buf_2
*CAP
1 cx[1] 0.000405062
2 *486:X 8.4409e-05
3 *13:10 0.000489471
4 cx[1] cx[2] 0
5 *13:10 *127:23 0.000117331
6 *13:10 *129:10 0.000114454
7 cx[0] cx[1] 0
*RES
1 *486:X *13:10 49.1382 
2 *13:10 cx[1] 1.35893 
*END

*D_NET *14 0.000733369
*CONN
*P cx[2] O
*I *473:X O *D sky130_fd_sc_hd__buf_2
*CAP
1 cx[2] 0.000339915
2 *473:X 0.000339915
3 cx[2] cx[3] 0
4 cx[2] *32:8 0
5 cx[2] *98:8 1.92676e-05
6 cx[2] *129:10 3.42712e-05
7 cx[1] cx[2] 0
*RES
1 *473:X cx[2] 48.0408 
*END

*D_NET *15 0.00142276
*CONN
*P cx[3] O
*I *474:X O *D sky130_fd_sc_hd__buf_2
*CAP
1 cx[3] 0.000301057
2 *474:X 0.000229381
3 *15:8 0.000530438
4 cx[3] cx[4] 0
5 *15:8 *99:10 9.02002e-05
6 *15:8 *100:8 8.85189e-05
7 *15:8 *102:10 0.000183164
8 cx[2] cx[3] 0
*RES
1 *474:X *15:8 43.9554 
2 *15:8 cx[3] 9.01547 
*END

*D_NET *16 0.00126768
*CONN
*P cx[4] O
*I *475:X O *D sky130_fd_sc_hd__buf_2
*CAP
1 cx[4] 0.000206467
2 *475:X 0.000287848
3 *16:10 0.000494316
4 cx[4] cx[5] 0
5 *16:10 *475:A 6.17437e-06
6 *16:10 *99:10 0.000213599
7 *16:10 *100:8 5.92801e-05
8 cx[3] cx[4] 0
*RES
1 *475:X *16:10 43.6446 
2 *16:10 cx[4] 8.75787 
*END

*D_NET *17 0.00296736
*CONN
*P cx[5] O
*I *476:X O *D sky130_fd_sc_hd__buf_2
*CAP
1 cx[5] 0.000460512
2 *476:X 0.000932247
3 *17:6 0.00139276
4 cx[5] cx[6] 0
5 cx[5] *100:8 3.59796e-05
6 cx[5] *102:18 0
7 *17:6 *432:CLK 7.59964e-05
8 *17:6 *475:A 3.7122e-06
9 *17:6 *103:8 6.61502e-05
10 cx[4] cx[5] 0
*RES
1 *476:X *17:6 36.0086 
2 *17:6 cx[5] 26.1831 
*END

*D_NET *18 0.00233726
*CONN
*P cx[6] O
*I *477:X O *D sky130_fd_sc_hd__buf_2
*CAP
1 cx[6] 0.00103498
2 *477:X 0.000133655
3 *18:10 0.00116863
4 cx[6] cx[7] 0
5 *18:10 *19:8 0
6 cx[5] cx[6] 0
*RES
1 *477:X *18:10 48.4339 
2 *18:10 cx[6] 3.7632 
*END

*D_NET *19 0.00224172
*CONN
*P cx[7] O
*I *478:X O *D sky130_fd_sc_hd__clkbuf_4
*CAP
1 cx[7] 0.000768792
2 *478:X 0.000352067
3 *19:8 0.00112086
4 cx[6] cx[7] 0
5 *18:10 *19:8 0
*RES
1 *478:X *19:8 45.0118 
2 *19:8 cx[7] 10.9045 
*END

*D_NET *21 0.00547424
*CONN
*I *373:C I *D sky130_fd_sc_hd__and3_1
*I *381:B I *D sky130_fd_sc_hd__and3_1
*I *366:B I *D sky130_fd_sc_hd__nand2_1
*I *433:Q O *D sky130_fd_sc_hd__dfxtp_1
*CAP
1 *373:C 0
2 *381:B 0.000500268
3 *366:B 0
4 *433:Q 0
5 *21:52 0.000283137
6 *21:22 0.000505608
7 *21:10 0.0010965
8 *21:6 0.000373759
9 *381:B *367:A2 0.000440206
10 *381:B *460:A 6.10547e-05
11 *381:B *24:50 9.86777e-06
12 *381:B *69:10 0.000304813
13 *381:B *74:20 0.000193209
14 *381:B *120:8 0.000191417
15 *21:10 *37:12 0.000109352
16 *21:22 *366:A 6.07084e-05
17 *21:22 *460:A 2.92911e-06
18 *21:22 *28:37 7.34394e-06
19 *21:22 *55:76 0.000212631
20 *21:22 *117:23 0.000356059
21 *21:22 *120:8 0.000107391
22 *21:52 *374:A 3.52821e-06
23 *21:52 *375:C1 0.000142173
24 *21:52 *28:37 9.07414e-05
25 *21:52 *37:12 4.94442e-05
26 *21:52 *59:12 6.17437e-06
27 *21:52 *94:12 0
28 *12:8 *21:22 0.000365926
*RES
1 *433:Q *21:6 38 
2 *21:6 *21:10 16.5536 
3 *21:10 *21:22 41.4757 
4 *21:22 *366:B 23 
5 *21:10 *381:B 34.6207 
6 *21:6 *21:52 49.5571 
7 *21:52 *373:C 23 
*END

*D_NET *22 0.0041192
*CONN
*I *460:A I *D sky130_fd_sc_hd__dlygate4sd3_1
*I *373:B I *D sky130_fd_sc_hd__and3_1
*I *385:A1 I *D sky130_fd_sc_hd__o21bai_1
*I *377:A I *D sky130_fd_sc_hd__nor3_1
*I *434:Q O *D sky130_fd_sc_hd__dfxtp_1
*CAP
1 *460:A 0.00051403
2 *373:B 0.000296379
3 *385:A1 0
4 *377:A 7.15208e-05
5 *434:Q 4.53397e-05
6 *22:23 0.000330139
7 *22:10 0.000390318
8 *22:6 0.000844407
9 *373:B *385:A2 1.56542e-05
10 *373:B *37:27 3.36312e-06
11 *373:B *37:40 0.000153847
12 *373:B *56:44 2.86871e-05
13 *373:B *66:12 0.000141183
14 *373:B *72:10 1.0092e-05
15 *377:A *385:A2 1.83408e-05
16 *460:A *367:A2 0.000138859
17 *460:A *37:12 9.29491e-05
18 *460:A *56:10 1.83408e-05
19 *460:A *119:6 0.000312284
20 *460:A *120:8 0.000348707
21 *22:6 *56:10 1.84831e-05
22 *22:10 *37:27 3.21668e-05
23 *22:10 *55:76 1.77632e-05
24 *22:10 *56:10 0.000103123
25 *22:10 *56:44 6.35124e-05
26 *22:23 *37:27 1.77632e-05
27 *22:23 *56:44 2.79653e-05
28 *381:B *460:A 6.10547e-05
29 *21:22 *460:A 2.92911e-06
*RES
1 *434:Q *22:6 23.6214 
2 *22:6 *22:10 20.7793 
3 *22:10 *377:A 39.1186 
4 *22:10 *22:23 0.849286 
5 *22:23 *385:A1 38 
6 *22:23 *373:B 42.6814 
7 *22:6 *460:A 33.6679 
*END

*D_NET *23 0.00622322
*CONN
*I *389:A I *D sky130_fd_sc_hd__or3_1
*I *394:A I *D sky130_fd_sc_hd__inv_2
*I *390:A1 I *D sky130_fd_sc_hd__a21oi_1
*I *368:B I *D sky130_fd_sc_hd__nand2_1
*I *435:Q O *D sky130_fd_sc_hd__dfxtp_1
*CAP
1 *389:A 0
2 *394:A 0.00027968
3 *390:A1 0
4 *368:B 0.000263564
5 *435:Q 0.000517464
6 *23:57 0.000592701
7 *23:33 0.000481476
8 *23:12 0.000620583
9 *23:10 0.00126539
10 *368:B *400:B 0.000189893
11 *368:B *37:63 1.22947e-05
12 *368:B *40:47 6.82579e-05
13 *368:B *59:41 9.79601e-05
14 *368:B *73:8 2.04934e-05
15 *368:B *117:23 5.50106e-05
16 *394:A *24:37 1.21972e-05
17 *394:A *31:10 1.37232e-05
18 *394:A *60:67 0.000167318
19 *394:A *60:77 0.000101686
20 *23:10 *395:A 0.000112122
21 *23:10 *435:CLK 3.7122e-06
22 *23:10 *435:D 0.000142247
23 *23:10 *436:CLK 1.94812e-05
24 *23:10 *37:89 4.07715e-05
25 *23:10 *39:21 0.000171474
26 *23:10 *56:68 0.000136635
27 *23:12 *39:10 0.000164978
28 *23:12 *39:21 1.20966e-05
29 *23:12 *56:59 0.000236063
30 *23:12 *56:68 2.42715e-05
31 *23:12 *59:41 5.94125e-05
32 *23:12 *60:77 2.44393e-05
33 *23:33 *386:C 1.24376e-05
34 *23:33 *59:41 2.02872e-05
35 *23:33 *60:77 0.000101226
36 *23:57 *56:80 2.33476e-05
37 *23:57 *77:51 0.000121204
38 *23:57 *82:10 2.11157e-05
39 *23:57 *102:18 1.62133e-05
*RES
1 *435:Q *23:10 46.8761 
2 *23:10 *23:12 4.19464 
3 *23:12 *368:B 43.3443 
4 *23:12 *23:33 17.5271 
5 *23:33 *390:A1 23 
6 *23:33 *394:A 27.3293 
7 *23:10 *23:57 32.4075 
8 *23:57 *389:A 23 
*END

*D_NET *24 0.00788338
*CONN
*I *381:C I *D sky130_fd_sc_hd__and3_1
*I *398:B2 I *D sky130_fd_sc_hd__o22a_1
*I *461:A I *D sky130_fd_sc_hd__dlygate4sd3_1
*I *436:Q O *D sky130_fd_sc_hd__dfxtp_1
*CAP
1 *381:C 0
2 *398:B2 0
3 *461:A 0
4 *436:Q 0.000671661
5 *24:50 0.000579246
6 *24:37 0.000378053
7 *24:18 0.000424632
8 *24:16 0.000956897
9 *24:10 0.00100273
10 *24:10 *371:A 4.79883e-06
11 *24:10 *402:A2 3.68716e-05
12 *24:10 *35:10 0.000384556
13 *24:10 *39:36 7.87147e-05
14 *24:10 *39:53 2.64616e-05
15 *24:16 *371:A 2.31116e-05
16 *24:16 *380:A2 1.40958e-05
17 *24:16 *397:A1 2.89106e-05
18 *24:16 *31:10 0.000129522
19 *24:16 *35:10 2.61977e-05
20 *24:16 *36:10 1.01436e-05
21 *24:16 *40:20 6.8448e-05
22 *24:16 *40:105 0.000129028
23 *24:16 *60:24 1.32972e-05
24 *24:16 *60:35 5.11935e-06
25 *24:16 *61:20 0.000219882
26 *24:16 *77:22 0.000248447
27 *24:16 *96:113 0
28 *24:16 *96:122 0
29 *24:18 *31:10 9.41704e-05
30 *24:18 *77:22 4.05745e-05
31 *24:37 *389:C 1.4006e-05
32 *24:37 *390:A2 0.000100061
33 *24:37 *401:B 7.88239e-05
34 *24:37 *31:10 7.27085e-05
35 *24:37 *60:67 6.53382e-05
36 *24:37 *60:77 5.77061e-05
37 *24:37 *76:8 0.000351235
38 *24:37 *77:22 0.0001157
39 *24:37 *77:51 5.78647e-05
40 *24:50 *367:A2 2.64616e-05
41 *24:50 *40:26 5.43484e-05
42 *24:50 *40:34 0.000200116
43 *24:50 *55:91 5.5792e-05
44 *24:50 *55:97 0.000260427
45 *24:50 *55:123 0.000211364
46 *24:50 *60:24 0.000136486
47 *24:50 *61:20 0
48 *24:50 *70:10 0.000162254
49 *24:50 *74:20 0.000245054
50 *381:B *24:50 9.86777e-06
51 *394:A *24:37 1.21972e-05
*RES
1 *436:Q *24:10 46.8657 
2 *24:10 *24:16 23.41 
3 *24:16 *24:18 1.09786 
4 *24:18 *461:A 23 
5 *24:18 *24:37 40.093 
6 *24:37 *398:B2 23 
7 *24:16 *24:50 44.6036 
8 *24:50 *381:C 23 
*END

*D_NET *25 0.006114
*CONN
*I *462:A I *D sky130_fd_sc_hd__dlygate4sd3_1
*I *463:A I *D sky130_fd_sc_hd__dlygate4sd3_1
*I *456:A I *D sky130_fd_sc_hd__dlygate4sd3_1
*I *408:B I *D sky130_fd_sc_hd__and3_1
*I *365:A2 I *D sky130_fd_sc_hd__o31ai_2
*I *437:Q O *D sky130_fd_sc_hd__dfxtp_1
*CAP
1 *462:A 0.00025162
2 *463:A 0.000137914
3 *456:A 0
4 *408:B 0.000525638
5 *365:A2 0
6 *437:Q 0
7 *25:44 0.000201864
8 *25:24 9.59331e-05
9 *25:14 0.00119333
10 *25:10 0.000841598
11 *25:4 0.00045751
12 *408:B *413:A 4.01634e-05
13 *408:B *26:54 5.77147e-05
14 *408:B *28:18 2.71502e-05
15 *408:B *55:10 8.6708e-05
16 *408:B *57:8 3.81232e-05
17 *408:B *89:12 0.000285627
18 *462:A *45:10 5.50106e-05
19 *462:A *92:16 7.16973e-05
20 *463:A *113:8 0.000387158
21 *463:A *125:14 0.000371319
22 *25:10 *45:10 7.09024e-05
23 *25:10 *92:16 7.91414e-06
24 *25:10 *95:77 0
25 *25:14 *440:CLK 0
26 *25:14 *26:54 4.15283e-06
27 *25:14 *27:10 0.000154521
28 *25:14 *45:10 4.98608e-05
29 *25:14 *89:12 0.000165269
30 *25:14 *95:77 0
31 *25:14 *114:16 0
32 *25:14 *123:12 0
33 *25:24 *365:A1 3.36312e-06
34 *25:24 *26:54 0.000110164
35 *25:24 *27:32 0
36 *25:24 *89:12 2.26406e-05
37 *25:24 *90:50 2.77148e-05
38 *25:44 *471:A 9.0102e-05
39 *25:44 *113:8 0.000226306
40 *25:44 *125:14 5.50106e-05
*RES
1 *437:Q *25:4 23 
2 *25:4 *25:10 18.3557 
3 *25:10 *25:14 9.39393 
4 *25:14 *25:24 31.5488 
5 *25:24 *365:A2 23 
6 *25:14 *408:B 46.8761 
7 *25:10 *25:44 17.5271 
8 *25:44 *456:A 23 
9 *25:44 *463:A 27.4329 
10 *25:4 *462:A 27.4743 
*END

*D_NET *26 0.0116144
*CONN
*I *420:A1 I *D sky130_fd_sc_hd__o32a_1
*I *403:A I *D sky130_fd_sc_hd__inv_2
*I *408:A I *D sky130_fd_sc_hd__and3_1
*I *409:A1 I *D sky130_fd_sc_hd__a21oi_1
*I *365:A1 I *D sky130_fd_sc_hd__o31ai_2
*I *406:A I *D sky130_fd_sc_hd__nand2_1
*I *438:Q O *D sky130_fd_sc_hd__dfxtp_1
*CAP
1 *420:A1 0
2 *403:A 2.30556e-05
3 *408:A 0.00015059
4 *409:A1 0
5 *365:A1 4.05124e-05
6 *406:A 1.97605e-05
7 *438:Q 0
8 *26:85 0.000664917
9 *26:54 0.000781002
10 *26:33 0.00172134
11 *26:18 0.00188941
12 *26:12 0.0011282
13 *26:4 0.00095082
14 *365:A1 *27:32 1.02428e-05
15 *365:A1 *89:12 0
16 *406:A *406:B 5.50106e-05
17 *406:A *87:6 1.94812e-05
18 *408:A *413:A 2.64616e-05
19 *408:A *413:B 1.72365e-05
20 *408:A *55:10 2.43944e-05
21 *26:12 *479:A 4.94447e-05
22 *26:12 *85:10 3.22467e-05
23 *26:12 *97:29 0.000227058
24 *26:12 *107:8 5.70419e-05
25 *26:12 *110:10 0.000163952
26 *26:18 *421:A1 0.000191166
27 *26:18 *85:10 3.22051e-05
28 *26:18 *87:12 0.000196008
29 *26:33 *421:A1 0.000374271
30 *26:33 *86:10 7.38424e-05
31 *26:33 *87:12 4.54033e-05
32 *26:33 *90:23 0.000263807
33 *26:33 *90:50 3.53636e-05
34 *26:33 *93:8 0.000236533
35 *26:54 *409:B1 5.50049e-05
36 *26:54 *27:10 4.75766e-05
37 *26:54 *55:10 3.40478e-05
38 *26:54 *57:8 0.000136486
39 *26:54 *89:12 1.21972e-05
40 *26:54 *90:50 2.35227e-05
41 *26:54 *114:16 7.11472e-06
42 *26:85 *418:A1 0.000244876
43 *26:85 *420:A2 5.50049e-05
44 *26:85 *420:B2 0.000107823
45 *26:85 *466:A 3.26241e-05
46 *26:85 *49:10 0.000142678
47 *26:85 *90:54 4.89731e-05
48 *26:85 *90:56 0.000179369
49 *26:85 *92:28 0
50 *26:85 *95:34 3.87221e-06
51 *26:85 *97:6 0.000360963
52 *26:85 *114:27 4.77164e-06
53 *26:85 *122:6 4.5051e-05
54 *26:85 *125:28 4.98398e-05
55 *408:B *26:54 5.77147e-05
56 *4:10 *26:12 0.000277167
57 *6:8 *26:85 6.92876e-05
58 *25:14 *26:54 4.15283e-06
59 *25:24 *365:A1 3.36312e-06
60 *25:24 *26:54 0.000110164
*RES
1 *438:Q *26:4 23 
2 *26:4 *26:12 38.12 
3 *26:12 *26:18 31.9236 
4 *26:18 *406:A 38.6214 
5 *26:18 *26:33 17.8502 
6 *26:33 *365:A1 46.6732 
7 *26:33 *26:54 28.1417 
8 *26:54 *409:A1 23 
9 *26:54 *408:A 25.0714 
10 *26:12 *403:A 23.4971 
11 *26:4 *26:85 44.8729 
12 *26:85 *420:A1 23 
*END

*D_NET *27 0.00496034
*CONN
*I *457:A I *D sky130_fd_sc_hd__dlygate4sd3_1
*I *413:B I *D sky130_fd_sc_hd__or2_1
*I *408:C I *D sky130_fd_sc_hd__and3_1
*I *365:A3 I *D sky130_fd_sc_hd__o31ai_2
*I *419:B I *D sky130_fd_sc_hd__nand2_1
*I *439:Q O *D sky130_fd_sc_hd__dfxtp_1
*CAP
1 *457:A 0
2 *413:B 7.5417e-05
3 *408:C 0
4 *365:A3 0
5 *419:B 0
6 *439:Q 0.000223612
7 *27:56 0.000156327
8 *27:48 0.000269511
9 *27:32 0.00044586
10 *27:18 0.000475511
11 *27:12 0.000218252
12 *27:10 0.000223612
13 *413:B *413:A 0.000134028
14 *413:B *88:50 5.50106e-05
15 *27:10 *93:35 4.39278e-05
16 *27:10 *114:16 0
17 *27:18 *54:6 1.33522e-05
18 *27:18 *106:16 5.59417e-05
19 *27:32 *440:CLK 0.000239117
20 *27:32 *28:8 0.00044133
21 *27:32 *44:10 0.000109443
22 *27:32 *54:6 0.000363092
23 *27:32 *89:12 0
24 *27:32 *106:16 0.000184334
25 *27:48 *54:6 0.00041071
26 *27:48 *106:16 0.00020302
27 *27:48 *114:16 5.50049e-05
28 *27:56 *413:A 3.52821e-06
29 *27:56 *40:34 0.000166532
30 *27:56 *90:50 7.48331e-05
31 *27:56 *90:52 5.24393e-05
32 *27:56 *90:54 3.70187e-05
33 *365:A1 *27:32 1.02428e-05
34 *408:A *413:B 1.72365e-05
35 *25:14 *27:10 0.000154521
36 *25:24 *27:32 0
37 *26:54 *27:10 4.75766e-05
*RES
1 *439:Q *27:10 41.8321 
2 *27:10 *27:12 15 
3 *27:12 *27:18 0.973571 
4 *27:18 *27:32 42.9464 
5 *27:32 *419:B 23 
6 *27:18 *365:A3 23 
7 *27:12 *27:48 5.55143 
8 *27:48 *27:56 32.4857 
9 *27:56 *408:C 23 
10 *27:56 *413:B 24.9886 
11 *27:48 *457:A 23 
*END

*D_NET *28 0.00456769
*CONN
*I *362:A I *D sky130_fd_sc_hd__clkbuf_4
*I *373:A I *D sky130_fd_sc_hd__and3_1
*I *458:A I *D sky130_fd_sc_hd__dlygate4sd3_1
*I *440:Q O *D sky130_fd_sc_hd__dfxtp_1
*CAP
1 *362:A 4.56416e-05
2 *373:A 0
3 *458:A 2.29078e-05
4 *440:Q 0.000566464
5 *28:37 0.000444393
6 *28:18 0.000793174
7 *28:8 0.000937979
8 *362:A *89:12 6.17437e-06
9 *458:A *58:10 7.53384e-06
10 *28:8 *440:CLK 8.26397e-05
11 *28:8 *440:D 5.96895e-05
12 *28:18 *89:12 6.08051e-05
13 *28:37 *375:B1 0.00021425
14 *28:37 *37:12 0.000131988
15 *28:37 *57:8 0
16 *28:37 *58:10 0.000137907
17 *28:37 *59:12 5.3304e-05
18 *28:37 *117:23 0.000172201
19 *408:B *28:18 2.71502e-05
20 *11:17 *28:18 0
21 *11:17 *28:37 1.01436e-05
22 *12:8 *458:A 2.4754e-05
23 *12:8 *28:18 0.000229174
24 *21:22 *28:37 7.34394e-06
25 *21:52 *28:37 9.07414e-05
26 *27:32 *28:8 0.00044133
*RES
1 *440:Q *28:8 31.265 
2 *28:8 *28:18 36.3386 
3 *28:18 *458:A 23.6214 
4 *28:18 *28:37 39.28 
5 *28:37 *373:A 23 
6 *28:8 *362:A 23.6214 
*END

*D_NET *29 0.000353684
*CONN
*I *455:A I *D sky130_fd_sc_hd__dlygate4sd3_1
*I *441:Q O *D sky130_fd_sc_hd__dfxtp_1
*CAP
1 *455:A 5.55985e-05
2 *441:Q 5.55985e-05
3 *455:A *404:B 0.000141052
4 *455:A *441:D 8.56657e-05
5 *455:A *86:46 1.5769e-05
*RES
1 *441:Q *455:A 48.0714 
*END

*D_NET *30 0.00162897
*CONN
*I *426:D I *D sky130_fd_sc_hd__dfxtp_1
*I *380:Y O *D sky130_fd_sc_hd__o21ai_1
*CAP
1 *426:D 5.59417e-05
2 *380:Y 0.000260512
3 *30:10 0.000316453
4 *30:10 *427:D 0.000377846
5 *30:10 *31:10 5.3304e-05
6 *30:10 *68:16 0.000564911
*RES
1 *380:Y *30:10 46.1614 
2 *30:10 *426:D 38.9943 
*END

*D_NET *31 0.00234071
*CONN
*I *427:D I *D sky130_fd_sc_hd__dfxtp_1
*I *384:X O *D sky130_fd_sc_hd__clkbuf_1
*CAP
1 *427:D 0.000221766
2 *384:X 0.000401155
3 *31:10 0.000622921
4 *427:D *32:8 0.000122854
5 *427:D *68:16 1.12487e-05
6 *31:10 *380:A2 2.94414e-05
7 *31:10 *428:CLK 9.5877e-05
8 *31:10 *121:10 9.41704e-05
9 *394:A *31:10 1.37232e-05
10 *24:16 *31:10 0.000129522
11 *24:18 *31:10 9.41704e-05
12 *24:37 *31:10 7.27085e-05
13 *30:10 *427:D 0.000377846
14 *30:10 *31:10 5.3304e-05
*RES
1 *384:X *31:10 45.7886 
2 *31:10 *427:D 44.4214 
*END

*D_NET *32 0.00129558
*CONN
*I *428:D I *D sky130_fd_sc_hd__dfxtp_1
*I *388:X O *D sky130_fd_sc_hd__clkbuf_1
*CAP
1 *428:D 4.77228e-05
2 *388:X 0.000393171
3 *32:8 0.000440893
4 *32:8 *127:23 0.000290937
5 cx[2] *32:8 0
6 *427:D *32:8 0.000122854
*RES
1 *388:X *32:8 48.005 
2 *32:8 *428:D 38.668 
*END

*D_NET *33 0.00152695
*CONN
*I *429:D I *D sky130_fd_sc_hd__dfxtp_1
*I *393:Y O *D sky130_fd_sc_hd__a21oi_1
*CAP
1 *429:D 0.000249789
2 *393:Y 0.000175966
3 *33:10 0.000425755
4 *429:D *371:A 9.5877e-05
5 *429:D *402:A2 1.59094e-05
6 *429:D *35:10 0.000265472
7 *429:D *40:6 1.5769e-05
8 *33:10 *397:A1 0.000129757
9 *33:10 *397:B1 9.67842e-05
10 *33:10 *78:10 5.58737e-05
*RES
1 *393:Y *33:10 41.0036 
2 *33:10 *429:D 43.4479 
*END

*D_NET *34 0.000387929
*CONN
*I *430:D I *D sky130_fd_sc_hd__dfxtp_1
*I *397:Y O *D sky130_fd_sc_hd__a21oi_1
*CAP
1 *430:D 6.0309e-05
2 *397:Y 6.0309e-05
3 *430:D *397:B1 2.87036e-05
4 *430:D *430:CLK 3.42338e-05
5 *430:D *101:8 0.000204374
*RES
1 *397:Y *430:D 48.2682 
*END

*D_NET *35 0.00218569
*CONN
*I *431:D I *D sky130_fd_sc_hd__dfxtp_1
*I *399:X O *D sky130_fd_sc_hd__o21ba_1
*CAP
1 *431:D 0.000127549
2 *399:X 0.000341594
3 *35:10 0.000469143
4 *35:10 *402:A2 7.43025e-06
5 *35:10 *402:B1 0.000218476
6 *35:10 *36:10 5.50106e-05
7 *35:10 *40:105 5.21024e-05
8 *35:10 *81:14 2.18506e-05
9 *35:10 *96:113 0.000169683
10 *35:10 *96:122 4.66241e-05
11 *429:D *35:10 0.000265472
12 *24:10 *35:10 0.000384556
13 *24:16 *35:10 2.61977e-05
*RES
1 *399:X *35:10 47.3007 
2 *35:10 *431:D 39.8902 
*END

*D_NET *36 0.000927616
*CONN
*I *432:D I *D sky130_fd_sc_hd__dfxtp_1
*I *402:X O *D sky130_fd_sc_hd__a22o_1
*CAP
1 *432:D 1.84095e-05
2 *402:X 0.000264761
3 *36:10 0.000283171
4 *432:D *432:CLK 8.38361e-05
5 *432:D *103:8 8.38361e-05
6 *36:10 *397:A1 3.44963e-05
7 *36:10 *432:CLK 7.10326e-05
8 *36:10 *476:A 0
9 *36:10 *40:68 0
10 *36:10 *96:122 2.29192e-05
11 *24:16 *36:10 1.01436e-05
12 *35:10 *36:10 5.50106e-05
*RES
1 *402:X *36:10 42.9921 
2 *36:10 *432:D 38.9373 
*END

*D_NET *37 0.0103461
*CONN
*I *386:B I *D sky130_fd_sc_hd__and3_1
*I *389:C I *D sky130_fd_sc_hd__or3_1
*I *372:A2 I *D sky130_fd_sc_hd__a21o_1
*I *399:A1 I *D sky130_fd_sc_hd__o21ba_1
*I *395:B I *D sky130_fd_sc_hd__and2_1
*I *385:B1_N I *D sky130_fd_sc_hd__o21bai_1
*I *377:B I *D sky130_fd_sc_hd__nor3_1
*I *433:D I *D sky130_fd_sc_hd__dfxtp_1
*I *367:Y O *D sky130_fd_sc_hd__o21ai_2
*CAP
1 *386:B 0
2 *389:C 0.000358377
3 *372:A2 0
4 *399:A1 0
5 *395:B 0
6 *385:B1_N 7.58076e-05
7 *377:B 0