* NGSPICE file created from top.ext - technology: sky130A

* Black-box entry subcircuit for sky130_fd_sc_hd__decap_4 abstract view
.subckt sky130_fd_sc_hd__decap_4 VGND VNB VPB VPWR
.ends

* Black-box entry subcircuit for sky130_fd_sc_hd__diode_2 abstract view
.subckt sky130_fd_sc_hd__diode_2 DIODE VGND VNB VPB VPWR
.ends

* Black-box entry subcircuit for sky130_fd_sc_hd__tapvpwrvgnd_1 abstract view
.subckt sky130_fd_sc_hd__tapvpwrvgnd_1 VGND VPWR
.ends

* Black-box entry subcircuit for sky130_fd_sc_hd__mux2_1 abstract view
.subckt sky130_fd_sc_hd__mux2_1 A0 A1 S VGND VNB VPB VPWR X
.ends

* Black-box entry subcircuit for sky130_fd_sc_hd__fill_2 abstract view
.subckt sky130_fd_sc_hd__fill_2 VGND VNB VPB VPWR
.ends

* Black-box entry subcircuit for sky130_fd_sc_hd__clkbuf_8 abstract view
.subckt sky130_fd_sc_hd__clkbuf_8 A VGND VNB VPB VPWR X
.ends

* Black-box entry subcircuit for sky130_fd_sc_hd__clkbuf_1 abstract view
.subckt sky130_fd_sc_hd__clkbuf_1 A VGND VNB VPB VPWR X
.ends

* Black-box entry subcircuit for sky130_fd_sc_hd__decap_6 abstract view
.subckt sky130_fd_sc_hd__decap_6 VGND VNB VPB VPWR
.ends

* Black-box entry subcircuit for sky130_fd_sc_hd__nor2_2 abstract view
.subckt sky130_fd_sc_hd__nor2_2 A B VGND VNB VPB VPWR Y
.ends

* Black-box entry subcircuit for sky130_ef_sc_hd__decap_12 abstract view
.subckt sky130_ef_sc_hd__decap_12 VPWR VGND VPB VNB
.ends

* Black-box entry subcircuit for sky130_fd_sc_hd__fill_1 abstract view
.subckt sky130_fd_sc_hd__fill_1 VGND VNB VPB VPWR
.ends

* Black-box entry subcircuit for sky130_fd_sc_hd__dfxtp_1 abstract view
.subckt sky130_fd_sc_hd__dfxtp_1 CLK D VGND VNB VPB VPWR Q
.ends

* Black-box entry subcircuit for sky130_fd_sc_hd__or3b_2 abstract view
.subckt sky130_fd_sc_hd__or3b_2 A B C_N VGND VNB VPB VPWR X
.ends

* Black-box entry subcircuit for sky130_fd_sc_hd__decap_3 abstract view
.subckt sky130_fd_sc_hd__decap_3 VGND VNB VPB VPWR
.ends

* Black-box entry subcircuit for sky130_fd_sc_hd__nor2_1 abstract view
.subckt sky130_fd_sc_hd__nor2_1 A B VGND VNB VPB VPWR Y
.ends

* Black-box entry subcircuit for sky130_fd_sc_hd__nor2_4 abstract view
.subckt sky130_fd_sc_hd__nor2_4 A B VGND VNB VPB VPWR Y
.ends

* Black-box entry subcircuit for sky130_fd_sc_hd__a21oi_1 abstract view
.subckt sky130_fd_sc_hd__a21oi_1 A1 A2 B1 VGND VNB VPB VPWR Y
.ends

* Black-box entry subcircuit for sky130_fd_sc_hd__or2_1 abstract view
.subckt sky130_fd_sc_hd__or2_1 A B VGND VNB VPB VPWR X
.ends

* Black-box entry subcircuit for sky130_fd_sc_hd__dlygate4sd3_1 abstract view
.subckt sky130_fd_sc_hd__dlygate4sd3_1 A VGND VNB VPB VPWR X
.ends

* Black-box entry subcircuit for sky130_fd_sc_hd__clkbuf_2 abstract view
.subckt sky130_fd_sc_hd__clkbuf_2 A VGND VNB VPB VPWR X
.ends

* Black-box entry subcircuit for sky130_fd_sc_hd__buf_6 abstract view
.subckt sky130_fd_sc_hd__buf_6 A VGND VNB VPB VPWR X
.ends

* Black-box entry subcircuit for sky130_fd_sc_hd__mux4_1 abstract view
.subckt sky130_fd_sc_hd__mux4_1 A0 A1 A2 A3 S0 S1 VGND VNB VPB VPWR X
.ends

* Black-box entry subcircuit for sky130_fd_sc_hd__buf_2 abstract view
.subckt sky130_fd_sc_hd__buf_2 A VGND VNB VPB VPWR X
.ends

* Black-box entry subcircuit for sky130_fd_sc_hd__clkbuf_4 abstract view
.subckt sky130_fd_sc_hd__clkbuf_4 A VGND VNB VPB VPWR X
.ends

* Black-box entry subcircuit for sky130_fd_sc_hd__buf_4 abstract view
.subckt sky130_fd_sc_hd__buf_4 A VGND VNB VPB VPWR X
.ends

* Black-box entry subcircuit for sky130_fd_sc_hd__o21ba_1 abstract view
.subckt sky130_fd_sc_hd__o21ba_1 A1 A2 B1_N VGND VNB VPB VPWR X
.ends

* Black-box entry subcircuit for sky130_fd_sc_hd__and2_1 abstract view
.subckt sky130_fd_sc_hd__and2_1 A B VGND VNB VPB VPWR X
.ends

* Black-box entry subcircuit for sky130_fd_sc_hd__o21a_1 abstract view
.subckt sky130_fd_sc_hd__o21a_1 A1 A2 B1 VGND VNB VPB VPWR X
.ends

* Black-box entry subcircuit for sky130_fd_sc_hd__decap_8 abstract view
.subckt sky130_fd_sc_hd__decap_8 VGND VNB VPB VPWR
.ends

* Black-box entry subcircuit for sky130_fd_sc_hd__a21o_1 abstract view
.subckt sky130_fd_sc_hd__a21o_1 A1 A2 B1 VGND VNB VPB VPWR X
.ends

* Black-box entry subcircuit for sky130_fd_sc_hd__a221o_1 abstract view
.subckt sky130_fd_sc_hd__a221o_1 A1 A2 B1 B2 C1 VGND VNB VPB VPWR X
.ends

* Black-box entry subcircuit for sky130_fd_sc_hd__xor2_1 abstract view
.subckt sky130_fd_sc_hd__xor2_1 A B VGND VNB VPB VPWR X
.ends

* Black-box entry subcircuit for sky130_fd_sc_hd__or3_1 abstract view
.subckt sky130_fd_sc_hd__or3_1 A B C VGND VNB VPB VPWR X
.ends

* Black-box entry subcircuit for sky130_fd_sc_hd__dlymetal6s2s_1 abstract view
.subckt sky130_fd_sc_hd__dlymetal6s2s_1 A VGND VNB VPB VPWR X
.ends

* Black-box entry subcircuit for sky130_fd_sc_hd__dlygate4sd1_1 abstract view
.subckt sky130_fd_sc_hd__dlygate4sd1_1 A VGND VNB VPB VPWR X
.ends

* Black-box entry subcircuit for sky130_fd_sc_hd__or2b_1 abstract view
.subckt sky130_fd_sc_hd__or2b_1 A B_N VGND VNB VPB VPWR X
.ends

* Black-box entry subcircuit for sky130_fd_sc_hd__a31o_1 abstract view
.subckt sky130_fd_sc_hd__a31o_1 A1 A2 A3 B1 VGND VNB VPB VPWR X
.ends

* Black-box entry subcircuit for sky130_fd_sc_hd__a32o_4 abstract view
.subckt sky130_fd_sc_hd__a32o_4 A1 A2 A3 B1 B2 VGND VNB VPB VPWR X
.ends

* Black-box entry subcircuit for sky130_fd_sc_hd__o22a_1 abstract view
.subckt sky130_fd_sc_hd__o22a_1 A1 A2 B1 B2 VGND VNB VPB VPWR X
.ends

* Black-box entry subcircuit for sky130_fd_sc_hd__xnor2_1 abstract view
.subckt sky130_fd_sc_hd__xnor2_1 A B VGND VNB VPB VPWR Y
.ends

* Black-box entry subcircuit for sky130_fd_sc_hd__o21ai_1 abstract view
.subckt sky130_fd_sc_hd__o21ai_1 A1 A2 B1 VGND VNB VPB VPWR Y
.ends

* Black-box entry subcircuit for sky130_fd_sc_hd__and2b_1 abstract view
.subckt sky130_fd_sc_hd__and2b_1 A_N B VGND VNB VPB VPWR X
.ends

* Black-box entry subcircuit for sky130_fd_sc_hd__clkbuf_16 abstract view
.subckt sky130_fd_sc_hd__clkbuf_16 A VGND VNB VPB VPWR X
.ends

* Black-box entry subcircuit for sky130_fd_sc_hd__nand2_1 abstract view
.subckt sky130_fd_sc_hd__nand2_1 A B VGND VNB VPB VPWR Y
.ends

* Black-box entry subcircuit for sky130_fd_sc_hd__o311a_1 abstract view
.subckt sky130_fd_sc_hd__o311a_1 A1 A2 A3 B1 C1 VGND VNB VPB VPWR X
.ends

* Black-box entry subcircuit for sky130_fd_sc_hd__mux2_2 abstract view
.subckt sky130_fd_sc_hd__mux2_2 A0 A1 S VGND VNB VPB VPWR X
.ends

* Black-box entry subcircuit for sky130_fd_sc_hd__inv_2 abstract view
.subckt sky130_fd_sc_hd__inv_2 A VGND VNB VPB VPWR Y
.ends

* Black-box entry subcircuit for sky130_fd_sc_hd__buf_8 abstract view
.subckt sky130_fd_sc_hd__buf_8 A VGND VNB VPB VPWR X
.ends

* Black-box entry subcircuit for sky130_fd_sc_hd__and4_1 abstract view
.subckt sky130_fd_sc_hd__and4_1 A B C D VGND VNB VPB VPWR X
.ends

* Black-box entry subcircuit for sky130_fd_sc_hd__o21ai_4 abstract view
.subckt sky130_fd_sc_hd__o21ai_4 A1 A2 B1 VGND VNB VPB VPWR Y
.ends

* Black-box entry subcircuit for sky130_fd_sc_hd__o211a_1 abstract view
.subckt sky130_fd_sc_hd__o211a_1 A1 A2 B1 C1 VGND VNB VPB VPWR X
.ends

* Black-box entry subcircuit for sky130_fd_sc_hd__a21oi_2 abstract view
.subckt sky130_fd_sc_hd__a21oi_2 A1 A2 B1 VGND VNB VPB VPWR Y
.ends

* Black-box entry subcircuit for sky130_fd_sc_hd__buf_12 abstract view
.subckt sky130_fd_sc_hd__buf_12 A VGND VNB VPB VPWR X
.ends

* Black-box entry subcircuit for sky130_fd_sc_hd__mux4_2 abstract view
.subckt sky130_fd_sc_hd__mux4_2 A0 A1 A2 A3 S0 S1 VGND VNB VPB VPWR X
.ends

* Black-box entry subcircuit for sky130_fd_sc_hd__clkinvlp_4 abstract view
.subckt sky130_fd_sc_hd__clkinvlp_4 A VGND VNB VPB VPWR Y
.ends

* Black-box entry subcircuit for sky130_fd_sc_hd__clkinvlp_2 abstract view
.subckt sky130_fd_sc_hd__clkinvlp_2 A VGND VNB VPB VPWR Y
.ends

* Black-box entry subcircuit for sky130_fd_sc_hd__inv_12 abstract view
.subckt sky130_fd_sc_hd__inv_12 A VGND VNB VPB VPWR Y
.ends

* Black-box entry subcircuit for sky130_fd_sc_hd__clkinv_4 abstract view
.subckt sky130_fd_sc_hd__clkinv_4 A VGND VNB VPB VPWR Y
.ends

* Black-box entry subcircuit for sky130_fd_sc_hd__inv_6 abstract view
.subckt sky130_fd_sc_hd__inv_6 A VGND VNB VPB VPWR Y
.ends

* Black-box entry subcircuit for sky130_fd_sc_hd__o41a_1 abstract view
.subckt sky130_fd_sc_hd__o41a_1 A1 A2 A3 A4 B1 VGND VNB VPB VPWR X
.ends

* Black-box entry subcircuit for sky130_fd_sc_hd__o32a_4 abstract view
.subckt sky130_fd_sc_hd__o32a_4 A1 A2 A3 B1 B2 VGND VNB VPB VPWR X
.ends

* Black-box entry subcircuit for sky130_fd_sc_hd__a21bo_1 abstract view
.subckt sky130_fd_sc_hd__a21bo_1 A1 A2 B1_N VGND VNB VPB VPWR X
.ends

* Black-box entry subcircuit for sky130_fd_sc_hd__a22o_1 abstract view
.subckt sky130_fd_sc_hd__a22o_1 A1 A2 B1 B2 VGND VNB VPB VPWR X
.ends

* Black-box entry subcircuit for sky130_fd_sc_hd__o2bb2a_2 abstract view
.subckt sky130_fd_sc_hd__o2bb2a_2 A1_N A2_N B1 B2 VGND VNB VPB VPWR X
.ends

* Black-box entry subcircuit for sky130_fd_sc_hd__or2_2 abstract view
.subckt sky130_fd_sc_hd__or2_2 A B VGND VNB VPB VPWR X
.ends

* Black-box entry subcircuit for sky130_fd_sc_hd__a32oi_4 abstract view
.subckt sky130_fd_sc_hd__a32oi_4 A1 A2 A3 B1 B2 VGND VNB VPB VPWR Y
.ends

* Black-box entry subcircuit for sky130_fd_sc_hd__o22a_2 abstract view
.subckt sky130_fd_sc_hd__o22a_2 A1 A2 B1 B2 VGND VNB VPB VPWR X
.ends

* Black-box entry subcircuit for sky130_fd_sc_hd__xnor2_2 abstract view
.subckt sky130_fd_sc_hd__xnor2_2 A B VGND VNB VPB VPWR Y
.ends

* Black-box entry subcircuit for sky130_fd_sc_hd__o21a_2 abstract view
.subckt sky130_fd_sc_hd__o21a_2 A1 A2 B1 VGND VNB VPB VPWR X
.ends

* Black-box entry subcircuit for sky130_fd_sc_hd__inv_16 abstract view
.subckt sky130_fd_sc_hd__inv_16 A VGND VNB VPB VPWR Y
.ends

* Black-box entry subcircuit for sky130_fd_sc_hd__a2bb2o_4 abstract view
.subckt sky130_fd_sc_hd__a2bb2o_4 A1_N A2_N B1 B2 VGND VNB VPB VPWR X
.ends

* Black-box entry subcircuit for sky130_fd_sc_hd__nor2b_4 abstract view
.subckt sky130_fd_sc_hd__nor2b_4 A B_N VGND VNB VPB VPWR Y
.ends

* Black-box entry subcircuit for sky130_fd_sc_hd__and3_1 abstract view
.subckt sky130_fd_sc_hd__and3_1 A B C VGND VNB VPB VPWR X
.ends

* Black-box entry subcircuit for sky130_fd_sc_hd__o221a_1 abstract view
.subckt sky130_fd_sc_hd__o221a_1 A1 A2 B1 B2 C1 VGND VNB VPB VPWR X
.ends

* Black-box entry subcircuit for sky130_fd_sc_hd__nand2_2 abstract view
.subckt sky130_fd_sc_hd__nand2_2 A B VGND VNB VPB VPWR Y
.ends

* Black-box entry subcircuit for sky130_fd_sc_hd__mux2_4 abstract view
.subckt sky130_fd_sc_hd__mux2_4 A0 A1 S VGND VNB VPB VPWR X
.ends

* Black-box entry subcircuit for sky130_fd_sc_hd__and3_4 abstract view
.subckt sky130_fd_sc_hd__and3_4 A B C VGND VNB VPB VPWR X
.ends

* Black-box entry subcircuit for sky130_fd_sc_hd__a211o_1 abstract view
.subckt sky130_fd_sc_hd__a211o_1 A1 A2 B1 C1 VGND VNB VPB VPWR X
.ends

* Black-box entry subcircuit for sky130_fd_sc_hd__a21oi_4 abstract view
.subckt sky130_fd_sc_hd__a21oi_4 A1 A2 B1 VGND VNB VPB VPWR Y
.ends

* Black-box entry subcircuit for sky130_fd_sc_hd__a2bb2o_2 abstract view
.subckt sky130_fd_sc_hd__a2bb2o_2 A1_N A2_N B1 B2 VGND VNB VPB VPWR X
.ends

* Black-box entry subcircuit for sky130_fd_sc_hd__or3b_1 abstract view
.subckt sky130_fd_sc_hd__or3b_1 A B C_N VGND VNB VPB VPWR X
.ends

* Black-box entry subcircuit for sky130_fd_sc_hd__a2bb2o_1 abstract view
.subckt sky130_fd_sc_hd__a2bb2o_1 A1_N A2_N B1 B2 VGND VNB VPB VPWR X
.ends

* Black-box entry subcircuit for sky130_fd_sc_hd__and4b_1 abstract view
.subckt sky130_fd_sc_hd__and4b_1 A_N B C D VGND VNB VPB VPWR X
.ends

* Black-box entry subcircuit for sky130_fd_sc_hd__o21ai_2 abstract view
.subckt sky130_fd_sc_hd__o21ai_2 A1 A2 B1 VGND VNB VPB VPWR Y
.ends

* Black-box entry subcircuit for sky130_fd_sc_hd__nand3_1 abstract view
.subckt sky130_fd_sc_hd__nand3_1 A B C VGND VNB VPB VPWR Y
.ends

* Black-box entry subcircuit for sky130_fd_sc_hd__xor2_2 abstract view
.subckt sky130_fd_sc_hd__xor2_2 A B VGND VNB VPB VPWR X
.ends

* Black-box entry subcircuit for sky130_fd_sc_hd__and3b_4 abstract view
.subckt sky130_fd_sc_hd__and3b_4 A_N B C VGND VNB VPB VPWR X
.ends

* Black-box entry subcircuit for sky130_fd_sc_hd__inv_8 abstract view
.subckt sky130_fd_sc_hd__inv_8 A VGND VNB VPB VPWR Y
.ends

* Black-box entry subcircuit for sky130_fd_sc_hd__o22ai_1 abstract view
.subckt sky130_fd_sc_hd__o22ai_1 A1 A2 B1 B2 VGND VNB VPB VPWR Y
.ends

* Black-box entry subcircuit for sky130_fd_sc_hd__o221a_2 abstract view
.subckt sky130_fd_sc_hd__o221a_2 A1 A2 B1 B2 C1 VGND VNB VPB VPWR X
.ends

* Black-box entry subcircuit for sky130_fd_sc_hd__o31ai_2 abstract view
.subckt sky130_fd_sc_hd__o31ai_2 A1 A2 A3 B1 VGND VNB VPB VPWR Y
.ends

* Black-box entry subcircuit for sky130_fd_sc_hd__or3b_4 abstract view
.subckt sky130_fd_sc_hd__or3b_4 A B C_N VGND VNB VPB VPWR X
.ends

* Black-box entry subcircuit for sky130_fd_sc_hd__o31a_1 abstract view
.subckt sky130_fd_sc_hd__o31a_1 A1 A2 A3 B1 VGND VNB VPB VPWR X
.ends

* Black-box entry subcircuit for sky130_fd_sc_hd__nand2_4 abstract view
.subckt sky130_fd_sc_hd__nand2_4 A B VGND VNB VPB VPWR Y
.ends

* Black-box entry subcircuit for sky130_fd_sc_hd__o31a_4 abstract view
.subckt sky130_fd_sc_hd__o31a_4 A1 A2 A3 B1 VGND VNB VPB VPWR X
.ends

* Black-box entry subcircuit for sky130_fd_sc_hd__and3b_1 abstract view
.subckt sky130_fd_sc_hd__and3b_1 A_N B C VGND VNB VPB VPWR X
.ends

* Black-box entry subcircuit for sky130_fd_sc_hd__clkinv_8 abstract view
.subckt sky130_fd_sc_hd__clkinv_8 A VGND VNB VPB VPWR Y
.ends

* Black-box entry subcircuit for sky130_fd_sc_hd__a22oi_2 abstract view
.subckt sky130_fd_sc_hd__a22oi_2 A1 A2 B1 B2 VGND VNB VPB VPWR Y
.ends

* Black-box entry subcircuit for sky130_fd_sc_hd__nand3_4 abstract view
.subckt sky130_fd_sc_hd__nand3_4 A B C VGND VNB VPB VPWR Y
.ends

* Black-box entry subcircuit for sky130_fd_sc_hd__o21bai_4 abstract view
.subckt sky130_fd_sc_hd__o21bai_4 A1 A2 B1_N VGND VNB VPB VPWR Y
.ends

* Black-box entry subcircuit for sky130_fd_sc_hd__o21bai_2 abstract view
.subckt sky130_fd_sc_hd__o21bai_2 A1 A2 B1_N VGND VNB VPB VPWR Y
.ends

* Black-box entry subcircuit for sky130_fd_sc_hd__o31ai_1 abstract view
.subckt sky130_fd_sc_hd__o31ai_1 A1 A2 A3 B1 VGND VNB VPB VPWR Y
.ends

* Black-box entry subcircuit for sky130_fd_sc_hd__a41o_1 abstract view
.subckt sky130_fd_sc_hd__a41o_1 A1 A2 A3 A4 B1 VGND VNB VPB VPWR X
.ends

* Black-box entry subcircuit for sky130_fd_sc_hd__a31oi_1 abstract view
.subckt sky130_fd_sc_hd__a31oi_1 A1 A2 A3 B1 VGND VNB VPB VPWR Y
.ends

* Black-box entry subcircuit for sky130_fd_sc_hd__nand4_2 abstract view
.subckt sky130_fd_sc_hd__nand4_2 A B C D VGND VNB VPB VPWR Y
.ends

* Black-box entry subcircuit for sky130_fd_sc_hd__bufinv_16 abstract view
.subckt sky130_fd_sc_hd__bufinv_16 A VGND VNB VPB VPWR Y
.ends

* Black-box entry subcircuit for sky130_fd_sc_hd__o2bb2a_1 abstract view
.subckt sky130_fd_sc_hd__o2bb2a_1 A1_N A2_N B1 B2 VGND VNB VPB VPWR X
.ends

* Black-box entry subcircuit for sky130_fd_sc_hd__clkinv_1 abstract view
.subckt sky130_fd_sc_hd__clkinv_1 A VGND VNB VPB VPWR Y
.ends

* Black-box entry subcircuit for sky130_fd_sc_hd__and2_2 abstract view
.subckt sky130_fd_sc_hd__and2_2 A B VGND VNB VPB VPWR X
.ends

* Black-box entry subcircuit for sky130_fd_sc_hd__a21boi_1 abstract view
.subckt sky130_fd_sc_hd__a21boi_1 A1 A2 B1_N VGND VNB VPB VPWR Y
.ends

* Black-box entry subcircuit for sky130_fd_sc_hd__a32o_2 abstract view
.subckt sky130_fd_sc_hd__a32o_2 A1 A2 A3 B1 B2 VGND VNB VPB VPWR X
.ends

* Black-box entry subcircuit for sky130_fd_sc_hd__o21bai_1 abstract view
.subckt sky130_fd_sc_hd__o21bai_1 A1 A2 B1_N VGND VNB VPB VPWR Y
.ends

* Black-box entry subcircuit for sky130_fd_sc_hd__and3b_2 abstract view
.subckt sky130_fd_sc_hd__and3b_2 A_N B C VGND VNB VPB VPWR X
.ends

* Black-box entry subcircuit for sky130_fd_sc_hd__a221o_2 abstract view
.subckt sky130_fd_sc_hd__a221o_2 A1 A2 B1 B2 C1 VGND VNB VPB VPWR X
.ends

* Black-box entry subcircuit for sky130_fd_sc_hd__or3_4 abstract view
.subckt sky130_fd_sc_hd__or3_4 A B C VGND VNB VPB VPWR X
.ends

* Black-box entry subcircuit for sky130_fd_sc_hd__a31o_4 abstract view
.subckt sky130_fd_sc_hd__a31o_4 A1 A2 A3 B1 VGND VNB VPB VPWR X
.ends

* Black-box entry subcircuit for sky130_fd_sc_hd__or4_4 abstract view
.subckt sky130_fd_sc_hd__or4_4 A B C D VGND VNB VPB VPWR X
.ends

* Black-box entry subcircuit for sky130_fd_sc_hd__a32o_1 abstract view
.subckt sky130_fd_sc_hd__a32o_1 A1 A2 A3 B1 B2 VGND VNB VPB VPWR X
.ends

* Black-box entry subcircuit for sky130_fd_sc_hd__o211ai_4 abstract view
.subckt sky130_fd_sc_hd__o211ai_4 A1 A2 B1 C1 VGND VNB VPB VPWR Y
.ends

* Black-box entry subcircuit for sky130_fd_sc_hd__or4b_4 abstract view
.subckt sky130_fd_sc_hd__or4b_4 A B C D_N VGND VNB VPB VPWR X
.ends

* Black-box entry subcircuit for sky130_fd_sc_hd__o32a_2 abstract view
.subckt sky130_fd_sc_hd__o32a_2 A1 A2 A3 B1 B2 VGND VNB VPB VPWR X
.ends

* Black-box entry subcircuit for sky130_fd_sc_hd__a311o_1 abstract view
.subckt sky130_fd_sc_hd__a311o_1 A1 A2 A3 B1 C1 VGND VNB VPB VPWR X
.ends

* Black-box entry subcircuit for sky130_fd_sc_hd__or4_1 abstract view
.subckt sky130_fd_sc_hd__or4_1 A B C D VGND VNB VPB VPWR X
.ends

* Black-box entry subcircuit for sky130_fd_sc_hd__or2_4 abstract view
.subckt sky130_fd_sc_hd__or2_4 A B VGND VNB VPB VPWR X
.ends

* Black-box entry subcircuit for sky130_fd_sc_hd__o2bb2a_4 abstract view
.subckt sky130_fd_sc_hd__o2bb2a_4 A1_N A2_N B1 B2 VGND VNB VPB VPWR X
.ends

* Black-box entry subcircuit for sky130_fd_sc_hd__nand3b_1 abstract view
.subckt sky130_fd_sc_hd__nand3b_1 A_N B C VGND VNB VPB VPWR Y
.ends

* Black-box entry subcircuit for sky130_fd_sc_hd__o32a_1 abstract view
.subckt sky130_fd_sc_hd__o32a_1 A1 A2 A3 B1 B2 VGND VNB VPB VPWR X
.ends

* Black-box entry subcircuit for sky130_fd_sc_hd__nand2b_4 abstract view
.subckt sky130_fd_sc_hd__nand2b_4 A_N B VGND VNB VPB VPWR Y
.ends

* Black-box entry subcircuit for sky130_fd_sc_hd__o211ai_2 abstract view
.subckt sky130_fd_sc_hd__o211ai_2 A1 A2 B1 C1 VGND VNB VPB VPWR Y
.ends

* Black-box entry subcircuit for sky130_fd_sc_hd__o21a_4 abstract view
.subckt sky130_fd_sc_hd__o21a_4 A1 A2 B1 VGND VNB VPB VPWR X
.ends

* Black-box entry subcircuit for sky130_fd_sc_hd__a221oi_2 abstract view
.subckt sky130_fd_sc_hd__a221oi_2 A1 A2 B1 B2 C1 VGND VNB VPB VPWR Y
.ends

* Black-box entry subcircuit for sky130_fd_sc_hd__and2_4 abstract view
.subckt sky130_fd_sc_hd__and2_4 A B VGND VNB VPB VPWR X
.ends

* Black-box entry subcircuit for sky130_fd_sc_hd__or3_2 abstract view
.subckt sky130_fd_sc_hd__or3_2 A B C VGND VNB VPB VPWR X
.ends

* Black-box entry subcircuit for sky130_fd_sc_hd__buf_1 abstract view
.subckt sky130_fd_sc_hd__buf_1 A VGND VNB VPB VPWR X
.ends

* Black-box entry subcircuit for sky130_fd_sc_hd__nand3b_4 abstract view
.subckt sky130_fd_sc_hd__nand3b_4 A_N B C VGND VNB VPB VPWR Y
.ends

* Black-box entry subcircuit for sky130_fd_sc_hd__nor2b_2 abstract view
.subckt sky130_fd_sc_hd__nor2b_2 A B_N VGND VNB VPB VPWR Y
.ends

* Black-box entry subcircuit for sky130_fd_sc_hd__a21o_4 abstract view
.subckt sky130_fd_sc_hd__a21o_4 A1 A2 B1 VGND VNB VPB VPWR X
.ends

.subckt top A1[0] A1[1] A1[2] A1[3] A1[4] A2[0] A2[1] A2[2] A2[3] A2[4] A3[0] A3[1]
+ A3[2] A3[3] A3[4] VGND VPWR WD3[0] WD3[10] WD3[11] WD3[12] WD3[13] WD3[14] WD3[15]
+ WD3[16] WD3[17] WD3[18] WD3[19] WD3[1] WD3[20] WD3[21] WD3[22] WD3[23] WD3[24] WD3[25]
+ WD3[26] WD3[27] WD3[28] WD3[29] WD3[2] WD3[30] WD3[31] WD3[3] WD3[4] WD3[5] WD3[6]
+ WD3[7] WD3[8] WD3[9] WE3 alu_out[0] alu_out[10] alu_out[11] alu_out[12] alu_out[13]
+ alu_out[14] alu_out[15] alu_out[16] alu_out[17] alu_out[18] alu_out[19] alu_out[1]
+ alu_out[20] alu_out[21] alu_out[22] alu_out[23] alu_out[24] alu_out[25] alu_out[26]
+ alu_out[27] alu_out[28] alu_out[29] alu_out[2] alu_out[30] alu_out[31] alu_out[3]
+ alu_out[4] alu_out[5] alu_out[6] alu_out[7] alu_out[8] alu_out[9] clk opcode[0]
+ opcode[1]
XFILLER_0_118_40 VGND VGND VPWR VPWR sky130_fd_sc_hd__decap_4
XANTENNA__4935__A _1690_ VGND VGND VPWR VPWR sky130_fd_sc_hd__diode_2
XANTENNA__6626__S _3217_ VGND VGND VPWR VPWR sky130_fd_sc_hd__diode_2
XTAP_TAPCELL_ROW_124_2311 VGND VPWR sky130_fd_sc_hd__tapvpwrvgnd_1
XTAP_TAPCELL_ROW_124_2322 VGND VPWR sky130_fd_sc_hd__tapvpwrvgnd_1
XTAP_TAPCELL_ROW_38_935 VGND VPWR sky130_fd_sc_hd__tapvpwrvgnd_1
XANTENNA__5512__S0 _1703_ VGND VGND VPWR VPWR sky130_fd_sc_hd__diode_2
XTAP_TAPCELL_ROW_38_946 VGND VPWR sky130_fd_sc_hd__tapvpwrvgnd_1
X_7963_ net383 _3448_ _3938_ VGND VGND VPWR VPWR _3948_ sky130_fd_sc_hd__mux2_1
XFILLER_0_77_612 VGND VGND VPWR VPWR sky130_fd_sc_hd__fill_2
X_6914_ _3375_ VGND VGND VPWR VPWR _3376_ sky130_fd_sc_hd__clkbuf_8
X_7894_ _3911_ VGND VGND VPWR VPWR _0434_ sky130_fd_sc_hd__clkbuf_1
XFILLER_0_77_645 VGND VGND VPWR VPWR sky130_fd_sc_hd__decap_6
XFILLER_0_37_509 VGND VGND VPWR VPWR sky130_fd_sc_hd__fill_2
X_6845_ _3091_ _3302_ VGND VGND VPWR VPWR _3339_ sky130_fd_sc_hd__nor2_2
XFILLER_0_18_701 VPWR VGND VPWR VGND sky130_ef_sc_hd__decap_12
XANTENNA__5766__A _2323_ VGND VGND VPWR VPWR sky130_fd_sc_hd__diode_2
XFILLER_0_58_881 VPWR VGND VPWR VGND sky130_ef_sc_hd__decap_12
XANTENNA__6361__S _3044_ VGND VGND VPWR VPWR sky130_fd_sc_hd__diode_2
XFILLER_0_64_339 VGND VGND VPWR VPWR sky130_fd_sc_hd__fill_1
X_9564_ clknet_leaf_13_clk _0724_ VGND VGND VPWR VPWR rf.registers\[11\]\[30\] sky130_fd_sc_hd__dfxtp_1
X_6776_ net13 net12 net11 VGND VGND VPWR VPWR _3302_ sky130_fd_sc_hd__or3b_2
XTAP_TAPCELL_ROW_102_1963 VGND VPWR sky130_fd_sc_hd__tapvpwrvgnd_1
XFILLER_0_134_205 VGND VGND VPWR VPWR sky130_fd_sc_hd__fill_1
X_8515_ _4240_ VGND VGND VPWR VPWR _0726_ sky130_fd_sc_hd__clkbuf_1
XPHY_EDGE_ROW_99_Left_254 VGND VGND VPWR VPWR sky130_fd_sc_hd__decap_3
XFILLER_0_45_553 VGND VGND VPWR VPWR sky130_fd_sc_hd__fill_2
X_5727_ _2062_ _2479_ VGND VGND VPWR VPWR _2480_ sky130_fd_sc_hd__nor2_1
X_9495_ clknet_leaf_35_clk _0655_ VGND VGND VPWR VPWR rf.registers\[16\]\[25\] sky130_fd_sc_hd__dfxtp_1
XFILLER_0_91_169 VGND VGND VPWR VPWR sky130_fd_sc_hd__fill_1
XFILLER_0_17_277 VGND VGND VPWR VPWR sky130_fd_sc_hd__decap_3
XFILLER_0_73_895 VGND VGND VPWR VPWR sky130_fd_sc_hd__fill_1
XFILLER_0_150_93 VGND VGND VPWR VPWR sky130_fd_sc_hd__decap_3
XANTENNA__7342__A0 _3075_ VGND VGND VPWR VPWR sky130_fd_sc_hd__diode_2
XFILLER_0_45_597 VGND VGND VPWR VPWR sky130_fd_sc_hd__fill_2
X_8446_ _3003_ _3411_ VGND VGND VPWR VPWR _4204_ sky130_fd_sc_hd__nor2_4
X_5658_ _2410_ _2412_ _2097_ VGND VGND VPWR VPWR _2413_ sky130_fd_sc_hd__a21oi_1
XFILLER_0_60_556 VGND VGND VPWR VPWR sky130_fd_sc_hd__fill_2
XFILLER_0_143_783 VGND VGND VPWR VPWR sky130_fd_sc_hd__fill_1
XANTENNA__8288__S _4119_ VGND VGND VPWR VPWR sky130_fd_sc_hd__diode_2
XTAP_TAPCELL_ROW_135_2495 VGND VPWR sky130_fd_sc_hd__tapvpwrvgnd_1
X_4609_ _1254_ _1364_ VGND VGND VPWR VPWR _1365_ sky130_fd_sc_hd__nor2_1
XFILLER_0_20_409 VGND VGND VPWR VPWR sky130_fd_sc_hd__fill_2
X_8377_ _4167_ VGND VGND VPWR VPWR _0661_ sky130_fd_sc_hd__clkbuf_1
XFILLER_0_60_589 VGND VGND VPWR VPWR sky130_fd_sc_hd__fill_2
X_5589_ _1799_ _2141_ VGND VGND VPWR VPWR _2344_ sky130_fd_sc_hd__or2_1
XFILLER_0_13_461 VPWR VGND VPWR VGND sky130_ef_sc_hd__decap_12
Xhold340 rf.registers\[17\]\[7\] VGND VGND VPWR VPWR net422 sky130_fd_sc_hd__dlygate4sd3_1
X_7328_ _3611_ VGND VGND VPWR VPWR _0168_ sky130_fd_sc_hd__clkbuf_1
XFILLER_0_7_70 VGND VGND VPWR VPWR sky130_fd_sc_hd__fill_2
Xhold351 rf.registers\[5\]\[12\] VGND VGND VPWR VPWR net433 sky130_fd_sc_hd__dlygate4sd3_1
Xhold362 rf.registers\[22\]\[2\] VGND VGND VPWR VPWR net444 sky130_fd_sc_hd__dlygate4sd3_1
Xhold373 rf.registers\[25\]\[23\] VGND VGND VPWR VPWR net455 sky130_fd_sc_hd__dlygate4sd3_1
Xhold384 rf.registers\[13\]\[1\] VGND VGND VPWR VPWR net466 sky130_fd_sc_hd__dlygate4sd3_1
XFILLER_0_7_92 VGND VGND VPWR VPWR sky130_fd_sc_hd__fill_2
Xhold395 rf.registers\[1\]\[12\] VGND VGND VPWR VPWR net477 sky130_fd_sc_hd__dlygate4sd3_1
X_7259_ _3060_ net1116 _3566_ VGND VGND VPWR VPWR _3575_ sky130_fd_sc_hd__mux2_1
Xhold1040 rf.registers\[31\]\[29\] VGND VGND VPWR VPWR net1122 sky130_fd_sc_hd__dlygate4sd3_1
Xhold1051 rf.registers\[28\]\[27\] VGND VGND VPWR VPWR net1133 sky130_fd_sc_hd__dlygate4sd3_1
Xhold1062 rf.registers\[21\]\[1\] VGND VGND VPWR VPWR net1144 sky130_fd_sc_hd__dlygate4sd3_1
XANTENNA__7221__A _3554_ VGND VGND VPWR VPWR sky130_fd_sc_hd__diode_2
XANTENNA__4306__S1 _1061_ VGND VGND VPWR VPWR sky130_fd_sc_hd__diode_2
XANTENNA__5503__S0 _1733_ VGND VGND VPWR VPWR sky130_fd_sc_hd__diode_2
XFILLER_0_95_431 VGND VGND VPWR VPWR sky130_fd_sc_hd__decap_3
XFILLER_0_28_509 VPWR VGND VPWR VGND sky130_ef_sc_hd__decap_12
XFILLER_0_138_533 VPWR VGND VPWR VGND sky130_ef_sc_hd__decap_12
XANTENNA__7367__S _3628_ VGND VGND VPWR VPWR sky130_fd_sc_hd__diode_2
XFILLER_0_153_503 VGND VGND VPWR VPWR sky130_fd_sc_hd__fill_1
XFILLER_0_51_501 VGND VGND VPWR VPWR sky130_fd_sc_hd__decap_3
XFILLER_0_141_709 VPWR VGND VPWR VGND sky130_ef_sc_hd__decap_12
XFILLER_0_24_737 VPWR VGND VPWR VGND sky130_ef_sc_hd__decap_12
XFILLER_0_23_214 VGND VGND VPWR VPWR sky130_fd_sc_hd__fill_1
XFILLER_0_3_609 VGND VGND VPWR VPWR sky130_fd_sc_hd__decap_6
Xrebuffer7 net130 VGND VGND VPWR VPWR net89 sky130_fd_sc_hd__clkbuf_2
XANTENNA__6136__B2 _2336_ VGND VGND VPWR VPWR sky130_fd_sc_hd__diode_2
XFILLER_0_32_781 VPWR VGND VPWR VGND sky130_ef_sc_hd__decap_12
XTAP_TAPCELL_ROW_75_1531 VGND VPWR sky130_fd_sc_hd__tapvpwrvgnd_1
XFILLER_0_139_28 VGND VGND VPWR VPWR sky130_fd_sc_hd__fill_1
XANTENNA__4739__B _1480_ VGND VGND VPWR VPWR sky130_fd_sc_hd__diode_2
XANTENNA__4545__S1 _1263_ VGND VGND VPWR VPWR sky130_fd_sc_hd__diode_2
XFILLER_0_3_28 VGND VGND VPWR VPWR sky130_fd_sc_hd__fill_2
XANTENNA_output56_A net56 VGND VGND VPWR VPWR sky130_fd_sc_hd__diode_2
XFILLER_0_64_25 VGND VGND VPWR VPWR sky130_fd_sc_hd__decap_3
XTAP_TAPCELL_ROW_106_2030 VGND VPWR sky130_fd_sc_hd__tapvpwrvgnd_1
XFILLER_0_149_809 VPWR VGND VPWR VGND sky130_ef_sc_hd__decap_12
XFILLER_0_59_612 VGND VGND VPWR VPWR sky130_fd_sc_hd__fill_2
X_4960_ _1655_ VGND VGND VPWR VPWR _1716_ sky130_fd_sc_hd__buf_6
XFILLER_0_59_634 VGND VGND VPWR VPWR sky130_fd_sc_hd__fill_2
X_4891_ rf.registers\[28\]\[0\] rf.registers\[29\]\[0\] rf.registers\[30\]\[0\] rf.registers\[31\]\[0\]
+ net1 net2 VGND VGND VPWR VPWR _1647_ sky130_fd_sc_hd__mux4_1
XFILLER_0_104_20 VGND VGND VPWR VPWR sky130_fd_sc_hd__fill_2
XFILLER_0_86_475 VGND VGND VPWR VPWR sky130_fd_sc_hd__fill_1
XFILLER_0_129_544 VGND VGND VPWR VPWR sky130_fd_sc_hd__fill_2
X_6630_ _3079_ net673 _3217_ VGND VGND VPWR VPWR _3225_ sky130_fd_sc_hd__mux2_1
XFILLER_0_27_553 VGND VGND VPWR VPWR sky130_fd_sc_hd__decap_6
XFILLER_0_144_525 VGND VGND VPWR VPWR sky130_fd_sc_hd__decap_6
X_6561_ _3187_ VGND VGND VPWR VPWR _0849_ sky130_fd_sc_hd__clkbuf_1
XFILLER_0_73_169 VGND VGND VPWR VPWR sky130_fd_sc_hd__decap_3
XFILLER_0_55_895 VGND VGND VPWR VPWR sky130_fd_sc_hd__fill_1
XFILLER_0_89_22 VGND VGND VPWR VPWR sky130_fd_sc_hd__fill_2
X_8300_ _3009_ net642 _4119_ VGND VGND VPWR VPWR _4127_ sky130_fd_sc_hd__mux2_1
XFILLER_0_144_569 VPWR VGND VPWR VGND sky130_ef_sc_hd__decap_12
XFILLER_0_27_597 VPWR VGND VPWR VGND sky130_ef_sc_hd__decap_12
XFILLER_0_6_469 VGND VGND VPWR VPWR sky130_fd_sc_hd__decap_6
XFILLER_0_42_523 VGND VGND VPWR VPWR sky130_fd_sc_hd__fill_2
X_5512_ rf.registers\[0\]\[6\] rf.registers\[1\]\[6\] rf.registers\[2\]\[6\] rf.registers\[3\]\[6\]
+ _1703_ _1706_ VGND VGND VPWR VPWR _2268_ sky130_fd_sc_hd__mux4_1
X_9280_ clknet_leaf_71_clk _0440_ VGND VGND VPWR VPWR rf.registers\[18\]\[2\] sky130_fd_sc_hd__dfxtp_1
XFILLER_0_54_394 VGND VGND VPWR VPWR sky130_fd_sc_hd__fill_2
XFILLER_0_89_55 VGND VGND VPWR VPWR sky130_fd_sc_hd__fill_1
X_6492_ _3149_ VGND VGND VPWR VPWR _0818_ sky130_fd_sc_hd__clkbuf_1
XFILLER_0_42_545 VGND VGND VPWR VPWR sky130_fd_sc_hd__fill_2
XFILLER_0_125_783 VGND VGND VPWR VPWR sky130_fd_sc_hd__fill_1
X_8231_ _4090_ VGND VGND VPWR VPWR _0592_ sky130_fd_sc_hd__clkbuf_1
XFILLER_0_120_52 VGND VGND VPWR VPWR sky130_fd_sc_hd__fill_2
X_5443_ rf.registers\[16\]\[10\] rf.registers\[17\]\[10\] rf.registers\[18\]\[10\]
+ rf.registers\[19\]\[10\] _2050_ _2052_ VGND VGND VPWR VPWR _2199_ sky130_fd_sc_hd__mux4_1
XFILLER_0_42_589 VPWR VGND VPWR VGND sky130_ef_sc_hd__decap_12
XFILLER_0_120_85 VGND VGND VPWR VPWR sky130_fd_sc_hd__fill_2
XANTENNA__4689__B2 _1254_ VGND VGND VPWR VPWR sky130_fd_sc_hd__diode_2
XANTENNA__6210__A _1996_ VGND VGND VPWR VPWR sky130_fd_sc_hd__diode_2
X_8162_ net273 _3442_ _4047_ VGND VGND VPWR VPWR _4054_ sky130_fd_sc_hd__mux2_1
XFILLER_0_22_280 VGND VGND VPWR VPWR sky130_fd_sc_hd__fill_2
X_5374_ _2128_ _2129_ _2044_ VGND VGND VPWR VPWR _2130_ sky130_fd_sc_hd__mux2_1
X_7113_ net23 VGND VGND VPWR VPWR _3493_ sky130_fd_sc_hd__buf_2
X_4325_ _1079_ _1080_ _1040_ VGND VGND VPWR VPWR _1081_ sky130_fd_sc_hd__mux2_1
XFILLER_0_1_185 VGND VGND VPWR VPWR sky130_fd_sc_hd__fill_1
X_8093_ _4017_ VGND VGND VPWR VPWR _0527_ sky130_fd_sc_hd__clkbuf_1
XFILLER_0_1_196 VGND VGND VPWR VPWR sky130_fd_sc_hd__fill_2
XFILLER_0_10_475 VGND VGND VPWR VPWR sky130_fd_sc_hd__fill_1
X_7044_ net34 VGND VGND VPWR VPWR _3446_ sky130_fd_sc_hd__clkbuf_4
XANTENNA__4536__S1 _1194_ VGND VGND VPWR VPWR sky130_fd_sc_hd__diode_2
XFILLER_0_129_83 VGND VGND VPWR VPWR sky130_fd_sc_hd__fill_2
XANTENNA__4861__B2 _1214_ VGND VGND VPWR VPWR sky130_fd_sc_hd__diode_2
XFILLER_0_97_707 VPWR VGND VPWR VGND sky130_ef_sc_hd__decap_12
XFILLER_0_97_729 VPWR VGND VPWR VGND sky130_ef_sc_hd__decap_12
X_8995_ clknet_leaf_70_clk _0155_ VGND VGND VPWR VPWR rf.registers\[31\]\[5\] sky130_fd_sc_hd__dfxtp_1
XTAP_TAPCELL_ROW_2_368 VGND VPWR sky130_fd_sc_hd__tapvpwrvgnd_1
XFILLER_0_96_206 VGND VGND VPWR VPWR sky130_fd_sc_hd__fill_1
X_7946_ _3939_ VGND VGND VPWR VPWR _0458_ sky130_fd_sc_hd__clkbuf_1
XANTENNA__4613__A1 _1214_ VGND VGND VPWR VPWR sky130_fd_sc_hd__diode_2
XFILLER_0_49_133 VGND VGND VPWR VPWR sky130_fd_sc_hd__fill_1
X_7877_ _3134_ net602 _3902_ VGND VGND VPWR VPWR _3903_ sky130_fd_sc_hd__mux2_1
XFILLER_0_65_615 VGND VGND VPWR VPWR sky130_fd_sc_hd__fill_1
XANTENNA__7187__S _3528_ VGND VGND VPWR VPWR sky130_fd_sc_hd__diode_2