*SPEF "ieee 1481-1999"
*DESIGN "first_project"
*DATE "16:06:19 Saturday April 26, 2025"
*VENDOR "The OpenROAD Project"
*PROGRAM "OpenROAD"
*VERSION "b16bda7e82721d10566ff7e2b68f1ff0be9f9e38"
*DESIGN_FLOW "NAME_SCOPE LOCAL" "PIN_CAP NONE"
*DIVIDER /
*DELIMITER :
*BUS_DELIMITER []
*T_UNIT 1 NS
*C_UNIT 1 PF
*R_UNIT 1 OHM
*L_UNIT 1 HENRY

*NAME_MAP
*3 in[0]
*4 in[1]
*5 in[2]
*6 in[3]
*7 in[4]
*8 in[5]
*9 in[6]
*10 in[7]
*11 out[0]
*12 out[1]
*13 out[2]
*14 out[3]
*15 out[4]
*16 out[5]
*17 out[6]
*18 out[7]
*19 _00_
*20 _01_
*21 _02_
*22 _03_
*23 _04_
*24 _05_
*25 _06_
*26 _07_
*27 _08_
*28 net1
*29 net10
*30 net11
*31 net12
*32 net13
*33 net14
*34 net15
*35 net16
*36 net2
*37 net3
*38 net4
*39 net5
*40 net6
*41 net7
*42 net8
*43 net9
*44 FILLER_0_0_18
*45 FILLER_0_0_26
*46 FILLER_0_0_3
*47 FILLER_0_1_22
*48 FILLER_0_1_31
*49 FILLER_0_2_14
*50 FILLER_0_2_24
*51 FILLER_0_2_29
*52 FILLER_0_2_34
*53 FILLER_0_2_6
*54 FILLER_0_3_15
*55 FILLER_0_3_27
*56 FILLER_0_3_9
*57 FILLER_0_4_3
*58 FILLER_0_4_36
*59 FILLER_0_5_18
*60 FILLER_0_5_29
*61 FILLER_0_5_6
*62 PHY_EDGE_ROW_0_Left_6
*63 PHY_EDGE_ROW_0_Right_0
*64 PHY_EDGE_ROW_1_Left_7
*65 PHY_EDGE_ROW_1_Right_1
*66 PHY_EDGE_ROW_2_Left_8
*67 PHY_EDGE_ROW_2_Right_2
*68 PHY_EDGE_ROW_3_Left_9
*69 PHY_EDGE_ROW_3_Right_3
*70 PHY_EDGE_ROW_4_Left_10
*71 PHY_EDGE_ROW_4_Right_4
*72 PHY_EDGE_ROW_5_Left_11
*73 PHY_EDGE_ROW_5_Right_5
*74 TAP_TAPCELL_ROW_0_12
*75 TAP_TAPCELL_ROW_2_13
*76 TAP_TAPCELL_ROW_4_14
*77 TAP_TAPCELL_ROW_5_15
*78 _09_
*79 _10_
*80 _11_
*81 _12_
*82 _13_
*83 _14_
*84 _15_
*85 _16_
*86 _17_
*87 _18_
*88 _19_
*89 _20_
*90 _21_
*91 _22_
*92 _23_
*93 _24_
*94 _25_
*95 input1
*96 input2
*97 input3
*98 input4
*99 input5
*100 input6
*101 input7
*102 input8
*103 output10
*104 output11
*105 output12
*106 output13
*107 output14
*108 output15
*109 output16
*110 output9

*PORTS
in[0] I
in[1] I
in[2] I
in[3] I
in[4] I
in[5] I
in[6] I
in[7] I
out[0] O
out[1] O
out[2] O
out[3] O
out[4] O
out[5] O
out[6] O
out[7] O

*D_NET *3 0.00129533
*CONN
*P in[0] I
*I *95:A I *D sky130_fd_sc_hd__buf_1
*CAP
1 in[0] 0.000635355
2 *95:A 0
3 *3:11 0.000635355
4 *3:11 *4:11 0
5 *3:11 *5:15 2.11066e-05
6 *3:11 *36:39 3.50862e-06
*RES
1 in[0] *3:11 32.5304 
2 *3:11 *95:A 23 
*END

*D_NET *4 0.0014225
*CONN
*P in[1] I
*I *96:A I *D sky130_fd_sc_hd__buf_1
*CAP
1 in[1] 0.00071125
2 *96:A 0
3 *4:11 0.00071125
4 *4:11 *5:15 0
5 *3:11 *4:11 0
*RES
1 in[1] *4:11 29.0775 
2 *4:11 *96:A 23 
*END

*D_NET *5 0.0014739
*CONN
*P in[2] I
*I *97:A I *D sky130_fd_sc_hd__clkbuf_1
*CAP
1 in[2] 0.000602743
2 *97:A 0
3 *5:15 0.000602743
4 *5:15 *98:A 0
5 *5:15 *28:6 9.97435e-06
6 *5:15 *36:39 0.000100318
7 *5:15 *36:59 2.17163e-05
8 *5:15 *37:6 6.88558e-05
9 *5:15 *37:12 4.64428e-05
10 *3:11 *5:15 2.11066e-05
11 *4:11 *5:15 0
*RES
1 in[2] *5:15 31.7816 
2 *5:15 *97:A 23 
*END

*D_NET *6 0.000657231
*CONN
*P in[3] I
*I *98:A I *D sky130_fd_sc_hd__clkbuf_1
*CAP
1 in[3] 0.000303331
2 *98:A 0.000303331
3 *98:A *7:19 1.05236e-05
4 *98:A *19:12 4.00459e-05
5 *5:15 *98:A 0
*RES
1 in[3] *98:A 48.4875 
*END

*D_NET *7 0.000954427
*CONN
*P in[4] I
*I *99:A I *D sky130_fd_sc_hd__buf_1
*CAP
1 in[4] 0.000454672
2 *99:A 0
3 *7:19 0.000454672
4 *7:19 *8:17 5.01799e-06
5 *7:19 *19:12 0
6 *7:19 *38:8 2.95423e-05
7 *98:A *7:19 1.05236e-05
*RES
1 in[4] *7:19 30.1412 
2 *7:19 *99:A 23 
*END

*D_NET *8 0.000853968
*CONN
*P in[5] I
*I *100:A I *D sky130_fd_sc_hd__buf_1
*CAP
1 in[5] 0.000424475
2 *100:A 0
3 *8:17 0.000424475
4 *8:17 *83:A3 0
5 *8:17 *9:15 0
6 *8:17 *19:12 0
7 *8:17 *19:14 0
8 *7:19 *8:17 5.01799e-06
*RES
1 in[5] *8:17 29.6234 
2 *8:17 *100:A 23 
*END

*D_NET *9 0.00142273
*CONN
*P in[6] I
*I *101:A I *D sky130_fd_sc_hd__clkbuf_1
*CAP
1 in[6] 0.000630494
2 *101:A 0
3 *9:15 0.000630494
4 *9:15 *83:A3 5.70419e-05
5 *9:15 *10:15 1.37232e-05
6 *9:15 *22:10 1.08287e-05
7 *9:15 *41:8 8.01438e-05
8 *8:17 *9:15 0
*RES
1 in[6] *9:15 32.5036 
2 *9:15 *101:A 23 
*END

*D_NET *10 0.00214155
*CONN
*P in[7] I
*I *102:A I *D sky130_fd_sc_hd__clkbuf_1
*CAP
1 in[7] 0.00106083
2 *102:A 0
3 *10:15 0.00106083
4 *10:15 *109:A 6.17437e-06
5 *9:15 *10:15 1.37232e-05
*RES
1 in[7] *10:15 33.5965 
2 *10:15 *102:A 23 
*END

*D_NET *11 0.00123844
*CONN
*P out[0] O
*I *110:X O *D sky130_fd_sc_hd__clkbuf_4
*CAP
1 out[0] 0.000209421
2 *110:X 0.000409797
3 *11:8 0.000619218
4 out[0] out[1] 0
*RES
1 *110:X *11:8 46.4204 
2 *11:8 out[0] 8.75787 
*END

*D_NET *12 0.00154942
*CONN
*P out[1] O
*I *103:X O *D sky130_fd_sc_hd__buf_2
*CAP
1 out[1] 0.00057763
2 *103:X 0.000194871
3 *12:10 0.000772501
4 out[1] out[2] 0
5 *12:10 out[2] 4.41821e-06
6 out[0] out[1] 0
*RES
1 *103:X *12:10 49.8425 
2 *12:10 out[1] 1.7024 
*END

*D_NET *13 0.00183573
*CONN
*P out[2] O
*I *104:X O *D sky130_fd_sc_hd__buf_2
*CAP
1 out[2] 0.000910767
2 *104:X 0.000910767
3 out[2] out[3] 0
4 out[2] *104:A 6.17437e-06
5 out[2] *14:12 0
6 out[2] *36:59 3.60434e-06
7 out[1] out[2] 0
8 *12:10 out[2] 4.41821e-06
*RES
1 *104:X out[2] 49.1688 
*END

*D_NET *14 0.00113228
*CONN
*P out[3] O
*I *105:X O *D sky130_fd_sc_hd__buf_2
*CAP
1 out[3] 0.000217811
2 *105:X 0.000297839
3 *14:12 0.00051565
4 out[3] out[4] 0
5 *14:12 out[4] 7.50265e-05
6 *14:12 *105:A 2.59524e-05
7 out[2] out[3] 0
8 out[2] *14:12 0
*RES
1 *105:X *14:12 47.3732 
2 *14:12 out[3] 16.5096 
*END

*D_NET *15 0.00170602
*CONN
*P out[4] O
*I *106:X O *D sky130_fd_sc_hd__buf_2
*CAP
1 out[4] 0.00061161
2 *106:X 0.000202032
3 *15:12 0.000813642
4 out[4] out[5] 0
5 *15:12 *106:A 3.7122e-06
6 out[3] out[4] 0
7 *14:12 out[4] 7.50265e-05
*RES
1 *106:X *15:12 48.8275 
2 *15:12 out[4] 1.35893 
*END

*D_NET *16 0.000744798
*CONN
*P out[5] O
*I *107:X O *D sky130_fd_sc_hd__buf_2
*CAP
1 out[5] 0.000361074
2 *107:X 0.000361074
3 out[5] out[6] 0
4 out[5] *34:10 2.26497e-05
5 out[4] out[5] 0
*RES
1 *107:X out[5] 47.1648 
*END

*D_NET *17 0.00072106
*CONN
*P out[6] O
*I *108:X O *D sky130_fd_sc_hd__buf_2
*CAP
1 out[6] 0.00036053
2 *108:X 0.00036053
3 out[6] out[7] 0
4 out[6] *18:8 0
5 out[5] out[6] 0
*RES
1 *108:X out[6] 48.5734 
*END

*D_NET *18 0.00121999
*CONN
*P out[7] O
*I *109:X O *D sky130_fd_sc_hd__buf_2
*CAP
1 out[7] 0.000321295
2 *109:X 0.000288698
3 *18:8 0.000609993
4 out[6] out[7] 0
5 out[6] *18:8 0
*RES
1 *109:X *18:8 43.9554 
2 *18:8 out[7] 9.1872 
*END

*D_NET *19 0.00411891
*CONN
*I *93:B1_N I *D sky130_fd_sc_hd__a21boi_1
*I *79:B I *D sky130_fd_sc_hd__nor2_1
*I *80:B I *D sky130_fd_sc_hd__and2_1
*I *84:D I *D sky130_fd_sc_hd__or4_1
*I *83:A3 I *D sky130_fd_sc_hd__o31a_1
*I *78:X O *D sky130_fd_sc_hd__or4_2
*CAP
1 *93:B1_N 0.000181721
2 *79:B 4.04175e-05
3 *80:B 0.000181856
4 *84:D 6.20102e-05
5 *83:A3 0.000215673
6 *78:X 6.6511e-05
7 *19:42 0.000444066
8 *19:14 0.000358741
9 *19:12 0.000569465
10 *19:8 0.000514847
11 *79:B *20:10 1.3523e-05
12 *80:B *20:10 4.65906e-05
13 *83:A3 *83:A1 1.16455e-05
14 *83:A3 *83:B1 3.70187e-05
15 *83:A3 *84:C 0.000156558
16 *83:A3 *39:14 1.64038e-05
17 *83:A3 *41:8 5.3304e-05
18 *84:D *84:A 5.5792e-05
19 *84:D *23:6 1.46286e-05
20 *93:B1_N *28:14 8.48502e-06
21 *93:B1_N *28:20 4.0578e-05
22 *93:B1_N *31:14 1.8788e-05
23 *93:B1_N *36:39 6.70361e-05
24 *19:8 *36:39 6.17437e-06
25 *19:12 *89:A 2.56506e-05
26 *19:12 *89:B 1.26815e-05
27 *19:12 *38:14 0.000139657
28 *19:12 *39:8 7.73177e-05
29 *19:12 *39:14 1.74126e-05
30 *19:14 *39:14 6.12479e-05
31 *19:42 *39:40 0.000367166
32 *19:42 *40:10 0.000138859
33 *98:A *19:12 4.00459e-05
34 *7:19 *19:12 0
35 *8:17 *83:A3 0
36 *8:17 *19:12 0
37 *8:17 *19:14 0
38 *9:15 *83:A3 5.70419e-05
*RES
1 *78:X *19:8 24.1186 
2 *19:8 *19:12 20.7793 
3 *19:12 *19:14 1.90571 
4 *19:14 *83:A3 43.1786 
5 *19:14 *84:D 39.0979 
6 *19:12 *19:42 20.3857 
7 *19:42 *80:B 26.3971 
8 *19:42 *79:B 24.1186 
9 *19:8 *93:B1_N 26.0243 
*END

*D_NET *20 0.000974175
*CONN
*I *81:A I *D sky130_fd_sc_hd__nor2_1
*I *82:B I *D sky130_fd_sc_hd__xnor2_1
*I *79:Y O *D sky130_fd_sc_hd__nor2_1
*CAP
1 *81:A 0
2 *82:B 0
3 *79:Y 0.00024028
4 *20:16 0.000165265
5 *20:10 0.000405545
6 *20:10 *81:B 0.000102971
7 *79:B *20:10 1.3523e-05
8 *80:B *20:10 4.65906e-05
*RES
1 *79:Y *20:10 28.4271 
2 *20:10 *20:16 32.9621 
3 *20:16 *82:B 23 
4 *20:10 *81:A 23 
*END

*D_NET *21 0.000176097
*CONN
*I *81:B I *D sky130_fd_sc_hd__nor2_1
*I *80:X O *D sky130_fd_sc_hd__and2_1
*CAP
1 *81:B 3.65634e-05
2 *80:X 3.65634e-05
3 *20:10 *81:B 0.000102971
*RES
1 *80:X *81:B 47.0979 
*END

*D_NET *22 0.000835328
*CONN
*I *85:A_N I *D sky130_fd_sc_hd__and2b_1
*I *83:X O *D sky130_fd_sc_hd__o31a_1
*CAP
1 *85:A_N 4.09379e-05
2 *83:X 0.000181471
3 *22:10 0.000222409
4 *85:A_N *82:A 2.31687e-05
5 *85:A_N *85:B 0.00014119
6 *85:A_N *87:A 9.79925e-05
7 *22:10 *40:16 0
8 *22:10 *41:8 5.79559e-05
9 *22:10 *42:8 5.93746e-05
10 *9:15 *22:10 1.08287e-05
*RES
1 *83:X *22:10 41.0036 
2 *22:10 *85:A_N 39.5743 
*END

*D_NET *23 0.00141363
*CONN
*I *85:B I *D sky130_fd_sc_hd__and2b_1
*I *87:B I *D sky130_fd_sc_hd__xor2_1
*I *84:X O *D sky130_fd_sc_hd__or4_1
*CAP
1 *85:B 0.000167851
2 *87:B 2.30556e-05
3 *84:X 0.000220672
4 *23:6 0.000411578
5 *85:B *82:A 7.94769e-05
6 *85:B *87:A 4.78497e-05
7 *85:B *35:10 0.000188934
8 *23:6 *82:A 1.83408e-05
9 *23:6 *84:A 4.67488e-05
10 *23:6 *40:16 5.3304e-05
11 *84:D *23:6 1.46286e-05
12 *85:A_N *85:B 0.00014119
*RES
1 *84:X *23:6 26.48 
2 *23:6 *87:B 23.4971 
3 *23:6 *85:B 27.4329 
*END

*D_NET *24 0.00105824
*CONN
*I *86:A I *D sky130_fd_sc_hd__clkbuf_1
*I *85:X O *D sky130_fd_sc_hd__and2b_1
*CAP
1 *86:A 0
2 *85:X 0.000446679
3 *24:10 0.000446679
4 *24:10 *82:A 0.000132671
5 *24:10 *107:A 3.22051e-05
*RES
1 *85:X *24:10 44.815 
2 *24:10 *86:A 38 
*END

*D_NET *25 0.000658007
*CONN
*I *91:A I *D sky130_fd_sc_hd__and2_1
*I *93:A2 I *D sky130_fd_sc_hd__a21boi_1
*I *89:X O *D sky130_fd_sc_hd__or3_1
*CAP
1 *91:A 7.01373e-06
2 *93:A2 0
3 *89:X 0.000106676
4 *25:12 2.7763e-05
5 *25:8 0.000127426
6 *91:A *91:B 5.79559e-05
7 *91:A *31:14 4.44329e-05
8 *25:8 *38:27 8.85189e-05
9 *25:12 *91:B 9.91101e-05
10 *25:12 *31:14 9.91101e-05
*RES
1 *89:X *25:8 39.9057 
2 *25:8 *25:12 16.0979 
3 *25:12 *93:A2 23 
4 *25:12 *91:A 23.6214 
*END

*D_NET *26 0.00153925
*CONN
*I *91:B I *D sky130_fd_sc_hd__and2_1
*I *90:Y O *D sky130_fd_sc_hd__o21ai_1
*CAP
1 *91:B 9.43032e-05
2 *90:Y 0.000291124
3 *26:14 0.000385427
4 *91:B *28:40 0.000320314
5 *91:B *31:14 5.76135e-05
6 *26:14 *89:B 2.24366e-06
7 *26:14 *36:16 8.78945e-05
8 *26:14 *37:6 8.59661e-05
9 *26:14 *37:12 5.72975e-05
10 *91:A *91:B 5.79559e-05
11 *25:12 *91:B 9.91101e-05
*RES
1 *90:Y *26:14 42.2464 
2 *26:14 *91:B 41.9771 
*END

*D_NET *27 0.000214322
*CONN
*I *92:A I *D sky130_fd_sc_hd__clkbuf_1
*I *91:X O *D sky130_fd_sc_hd__and2_1
*CAP
1 *92:A 2.53649e-05
2 *91:X 2.53649e-05
3 *92:A *28:40 8.1796e-05
4 *92:A *31:14 8.1796e-05
*RES
1 *91:X *92:A 47.5743 
*END

*D_NET *28 0.00347738
*CONN
*I *90:A2 I *D sky130_fd_sc_hd__o21ai_1
*I *88:B I *D sky130_fd_sc_hd__xor2_1
*I *94:A I *D sky130_fd_sc_hd__clkbuf_1
*I *78:D I *D sky130_fd_sc_hd__or4_2
*I *89:C I *D sky130_fd_sc_hd__or3_1
*I *95:X O *D sky130_fd_sc_hd__buf_1
*CAP
1 *90:A2 8.10102e-05
2 *88:B 0.000116056
3 *94:A 2.32689e-05
4 *78:D 0
5 *89:C 0
6 *95:X 9.24123e-05
7 *28:40 0.000421306
8 *28:26 0.000136806
9 *28:20 0.00018799
10 *28:14 0.00046407
11 *28:6 0.000304328
12 *88:B *31:14 1.76557e-05
13 *88:B *36:59 0.000274925
14 *88:B *43:10 3.22879e-05
15 *90:A2 *36:39 1.21972e-05
16 *90:A2 *37:12 5.53064e-05
17 *28:6 *36:39 1.59094e-05
18 *28:14 *89:A 3.6909e-05
19 *28:14 *36:16 0.000100069
20 *28:14 *36:39 0.00020937
21 *28:14 *37:12 7.43673e-05
22 *28:26 *89:B 0.000190283
23 *28:40 *31:14 3.06344e-05
24 *28:40 *36:16 0.000139067
25 *91:B *28:40 0.000320314
26 *92:A *28:40 8.1796e-05
27 *93:B1_N *28:14 8.48502e-06
28 *93:B1_N *28:20 4.0578e-05
29 *5:15 *28:6 9.97435e-06
*RES
1 *95:X *28:6 24.0979 
2 *28:6 *28:14 33.6043 
3 *28:14 *28:20 1.61571 
4 *28:20 *28:26 32.61 
5 *28:26 *89:C 23 
6 *28:20 *78:D 23 
7 *28:14 *28:40 7.31214 
8 *28:40 *94:A 23.4971 
9 *28:40 *88:B 26.48 
10 *28:6 *90:A2 24.0979 
*END

*D_NET *29 0.000525955
*CONN
*I *103:A I *D sky130_fd_sc_hd__buf_2
*I *88:X O *D sky130_fd_sc_hd__xor2_1
*CAP
1 *103:A 6.07267e-05
2 *88:X 0.000106225
3 *29:8 0.000166952
4 *103:A *110:A 5.3304e-05
5 *29:8 *43:10 0.000138747
*RES
1 *88:X *29:8 40.2579 
2 *29:8 *103:A 39.0979 
*END

*D_NET *30 0.000408806
*CONN
*I *104:A I *D sky130_fd_sc_hd__buf_2
*I *92:X O *D sky130_fd_sc_hd__clkbuf_1
*CAP
1 *104:A 5.01733e-05
2 *92:X 0.000133832
3 *30:8 0.000184005
4 *104:A *36:59 3.46216e-05
5 out[2] *104:A 6.17437e-06
*RES
1 *92:X *30:8 40.2579 
2 *30:8 *104:A 39.0979 
*END

*D_NET *31 0.00200684
*CONN
*I *105:A I *D sky130_fd_sc_hd__buf_2
*I *93:Y O *D sky130_fd_sc_hd__a21boi_1
*CAP
1 *105:A 0.000106235
2 *93:Y 0.000620337
3 *31:14 0.000726573
4 *31:14 *36:59 0.000177709
5 *88:B *31:14 1.76557e-05
6 *91:A *31:14 4.44329e-05
7 *91:B *31:14 5.76135e-05
8 *92:A *31:14 8.1796e-05
9 *93:B1_N *31:14 1.8788e-05
10 *14:12 *105:A 2.59524e-05
11 *25:12 *31:14 9.91101e-05
12 *28:40 *31:14 3.06344e-05
*RES
1 *93:Y *31:14 48.8129 
2 *31:14 *105:A 39.9057 
*END

*D_NET *32 0.000488656
*CONN
*I *106:A I *D sky130_fd_sc_hd__buf_2
*I *81:Y O *D sky130_fd_sc_hd__nor2_1
*CAP
1 *106:A 0.000120491
2 *81:Y 0.000121982
3 *32:8 0.000242472
4 *15:12 *106:A 3.7122e-06
*RES
1 *81:Y *32:8 40.2579 
2 *32:8 *106:A 40.0507 
*END

*D_NET *33 0.000304122
*CONN
*I *107:A I *D sky130_fd_sc_hd__buf_2
*I *82:Y O *D sky130_fd_sc_hd__xnor2_1
*CAP
1 *107:A 0.000135958
2 *82:Y 0.000135958
3 *24:10 *107:A 3.22051e-05
*RES
1 *82:Y *107:A 48.4236 
*END

*D_NET *34 0.00102863
*CONN
*I *108:A I *D sky130_fd_sc_hd__buf_2
*I *86:X O *D sky130_fd_sc_hd__clkbuf_1
*CAP
1 *108:A 9.56576e-05
2 *86:X 0.000407331
3 *34:10 0.000502988
4 out[5] *34:10 2.26497e-05
*RES
1 *86:X *34:10 44.6493 
2 *34:10 *108:A 39.5743 
*END

*D_NET *35 0.00130066
*CONN
*I *109:A I *D sky130_fd_sc_hd__buf_2
*I *87:X O *D sky130_fd_sc_hd__xor2_1
*CAP
1 *109:A 0.000245194
2 *87:X 0.000300837
3 *35:10 0.000546031
4 *35:10 *82:A 1.34914e-05
5 *35:10 *42:8 0
6 *85:B *35:10 0.000188934
7 *10:15 *109:A 6.17437e-06
*RES
1 *87:X *35:10 42.785 
2 *35:10 *109:A 42.4329 
*END

*D_NET *36 0.00472928
*CONN
*I *88:A I *D sky130_fd_sc_hd__xor2_1
*I *78:C I *D sky130_fd_sc_hd__or4_2
*I *90:A1 I *D sky130_fd_sc_hd__o21ai_1
*I *89:B I *D sky130_fd_sc_hd__or3_1
*I *96:X O *D sky130_fd_sc_hd__buf_1
*CAP
1 *88:A 0
2 *78:C 0
3 *90:A1 0
4 *89:B 0.00019837
5 *96:X 0
6 *36:59 0.000657197
7 *36:39 0.000258597
8 *36:29 0.000258597
9 *36:16 0.000484864
10 *36:4 0.00094369
11 *89:B *89:A 0.000269208
12 *89:B *39:8 1.12863e-05
13 *36:16 *89:A 5.07313e-05
14 *36:16 *37:12 1.12863e-05
15 *36:39 *89:A 1.22906e-05
16 *36:39 *37:12 1.91688e-05
17 *36:59 *37:6 5.58003e-05
18 *36:59 *43:10 3.88629e-05
19 out[2] *36:59 3.60434e-06
20 *88:B *36:59 0.000274925
21 *90:A2 *36:39 1.21972e-05
22 *93:B1_N *36:39 6.70361e-05
23 *104:A *36:59 3.46216e-05
24 *3:11 *36:39 3.50862e-06
25 *5:15 *36:39 0.000100318
26 *5:15 *36:59 2.17163e-05
27 *19:8 *36:39 6.17437e-06
28 *19:12 *89:B 1.26815e-05
29 *26:14 *89:B 2.24366e-06
30 *26:14 *36:16 8.78945e-05
31 *28:6 *36:39 1.59094e-05
32 *28:14 *36:16 0.000100069
33 *28:14 *36:39 0.00020937
34 *28:26 *89:B 0.000190283
35 *28:40 *36:16 0.000139067
36 *31:14 *36:59 0.000177709
*RES
1 *96:X *36:4 23 
2 *36:4 *36:16 49.5779 
3 *36:16 *89:B 42.64 
4 *36:16 *36:29 15 
5 *36:29 *36:39 35.6343 
6 *36:39 *90:A1 23 
7 *36:29 *78:C 23 
8 *36:4 *36:59 41.6 
9 *36:59 *88:A 23 
*END

*D_NET *37 0.00192479
*CONN
*I *90:B1 I *D sky130_fd_sc_hd__o21ai_1
*I *78:B I *D sky130_fd_sc_hd__or4_2
*I *89:A I *D sky130_fd_sc_hd__or3_1
*I *97:X O *D sky130_fd_sc_hd__clkbuf_1
*CAP
1 *90:B1 2.30556e-05
2 *78:B 0
3 *89:A 0.000200011
4 *97:X 5.71307e-05
5 *37:12 0.000327143
6 *37:6 0.000207317
7 *89:A *38:14 0.000166532
8 *89:A *38:27 7.43209e-05
9 *89:B *89:A 0.000269208
10 *90:A2 *37:12 5.53064e-05
11 *5:15 *37:6 6.88558e-05
12 *5:15 *37:12 4.64428e-05
13 *19:12 *89:A 2.56506e-05
14 *26:14 *37:6 8.59661e-05
15 *26:14 *37:12 5.72975e-05
16 *28:14 *89:A 3.6909e-05
17 *28:14 *37:12 7.43673e-05
18 *36:16 *89:A 5.07313e-05
19 *36:16 *37:12 1.12863e-05
20 *36:39 *89:A 1.22906e-05
21 *36:39 *37:12 1.91688e-05
22 *36:59 *37:6 5.58003e-05
*RES
1 *97:X *37:6 25.0507 
2 *37:6 *37:12 18.1279 
3 *37:12 *89:A 43.5929 
4 *37:12 *78:B 38 
5 *37:6 *90:B1 23.4971 
*END

*D_NET *38 0.00148329
*CONN
*I *93:A1 I *D sky130_fd_sc_hd__a21boi_1
*I *78:A I *D sky130_fd_sc_hd__or4_2
*I *98:X O *D sky130_fd_sc_hd__clkbuf_1
*CAP
1 *93:A1 0
2 *78:A 0
3 *98:X 9.53969e-05
4 *38:27 0.00033112
5 *38:14 6.5844e-05
6 *38:8 0.000492361
7 *89:A *38:14 0.000166532
8 *89:A *38:27 7.43209e-05
9 *7:19 *38:8 2.95423e-05
10 *19:12 *38:14 0.000139657
11 *25:8 *38:27 8.85189e-05
*RES
1 *98:X *38:8 24.595 
2 *38:8 *38:14 32.2579 
3 *38:14 *78:A 23 
4 *38:8 *38:27 35.51 
5 *38:27 *93:A1 23 
*END

*D_NET *39 0.00287719
*CONN
*I *79:A I *D sky130_fd_sc_hd__nor2_1
*I *80:A I *D sky130_fd_sc_hd__and2_1
*I *84:A I *D sky130_fd_sc_hd__or4_1
*I *83:A1 I *D sky130_fd_sc_hd__o31a_1
*I *99:X O *D sky130_fd_sc_hd__buf_1
*CAP
1 *79:A 0
2 *80:A 0
3 *84:A 5.37523e-05
4 *83:A1 0.000208094
5 *99:X 8.905e-05
6 *39:50 0.000206701
7 *39:40 0.000342705
8 *39:14 0.000409133
9 *39:8 0.00037234
10 *83:A1 *83:B1 6.16439e-05
11 *83:A1 *84:C 0.000165781
12 *83:A1 *40:16 3.62854e-05
13 *83:A1 *40:22 0.00013842
14 *39:14 *40:10 0.000100176
15 *39:14 *40:16 2.80847e-05
16 *83:A3 *83:A1 1.16455e-05
17 *83:A3 *39:14 1.64038e-05
18 *84:D *84:A 5.5792e-05
19 *89:B *39:8 1.12863e-05
20 *19:12 *39:8 7.73177e-05
21 *19:12 *39:14 1.74126e-05
22 *19:14 *39:14 6.12479e-05
23 *19:42 *39:40 0.000367166
24 *23:6 *84:A 4.67488e-05
*RES
1 *99:X *39:8 40.2579 
2 *39:8 *39:14 3.37643 
3 *39:14 *83:A1 42.9093 
4 *39:14 *84:A 39.0979 
5 *39:8 *39:40 18.9564 
6 *39:40 *39:50 32.2164 
7 *39:50 *80:A 23 
8 *39:40 *79:A 23 
*END

*D_NET *40 0.00264646
*CONN
*I *82:A I *D sky130_fd_sc_hd__xnor2_1
*I *84:B I *D sky130_fd_sc_hd__or4_1
*I *83:A2 I *D sky130_fd_sc_hd__o31a_1
*I *100:X O *D sky130_fd_sc_hd__buf_1
*CAP
1 *82:A 0.000383301
2 *84:B 0
3 *83:A2 0
4 *100:X 0.000231603
5 *40:22 8.56315e-05
6 *40:16 0.000232598
7 *40:10 0.000761871
8 *82:A *87:A 0.000189176
9 *83:A1 *40:16 3.62854e-05
10 *83:A1 *40:22 0.00013842
11 *85:A_N *82:A 2.31687e-05
12 *85:B *82:A 7.94769e-05
13 *19:42 *40:10 0.000138859
14 *22:10 *40:16 0
15 *23:6 *82:A 1.83408e-05
16 *23:6 *40:16 5.3304e-05
17 *24:10 *82:A 0.000132671
18 *35:10 *82:A 1.34914e-05
19 *39:14 *40:10 0.000100176
20 *39:14 *40:16 2.80847e-05
*RES
1 *100:X *40:10 41.6043 
2 *40:10 *40:16 17.175 
3 *40:16 *40:22 31.9057 
4 *40:22 *83:A2 23 
5 *40:16 *84:B 23 
6 *40:10 *82:A 46.8864 
*END

*D_NET *41 0.001067
*CONN
*I *84:C I *D sky130_fd_sc_hd__or4_1
*I *83:B1 I *D sky130_fd_sc_hd__o31a_1
*I *101:X O *D sky130_fd_sc_hd__clkbuf_1
*CAP
1 *84:C 5.66264e-05
2 *83:B1 2.80592e-05
3 *101:X 0.000142612
4 *41:8 0.000227298
5 *83:A1 *83:B1 6.16439e-05
6 *83:A1 *84:C 0.000165781
7 *83:A3 *83:B1 3.70187e-05
8 *83:A3 *84:C 0.000156558
9 *83:A3 *41:8 5.3304e-05
10 *9:15 *41:8 8.01438e-05
11 *22:10 *41:8 5.79559e-05
*RES
1 *101:X *41:8 41.0036 
2 *41:8 *83:B1 38.8493 
3 *41:8 *84:C 40.2579 
*END

*D_NET *42 0.000744279
*CONN
*I *87:A I *D sky130_fd_sc_hd__xor2_1
*I *102:X O *D sky130_fd_sc_hd__clkbuf_1
*CAP
1 *87:A 4.26705e-05
2 *102:X 0.000132272
3 *42:8 0.000174943
4 *82:A *87:A 0.000189176
5 *85:A_N *87:A 9.79925e-05
6 *85:B *87:A 4.78497e-05
7 *22:10 *42:8 5.93746e-05
8 *35:10 *42:8 0
*RES
1 *102:X *42:8 40.2579 
2 *42:8 *87:A 40.0507 
*END

*D_NET *43 0.000805886
*CONN
*I *110:A I *D sky130_fd_sc_hd__clkbuf_4
*I *94:X O *D sky130_fd_sc_hd__clkbuf_1
*CAP
1 *110:A 0.000161168
2 *94:X 0.000110174
3 *43:10 0.000271343
4 *88:B *43:10 3.22879e-05
5 *103:A *110:A 5.3304e-05
6 *29:8 *43:10 0.000138747
7 *36:59 *43:10 3.88629e-05
*RES
1 *94:X *43:10 40.5271 
2 *43:10 *110:A 40.5479 
*END
