*SPEF "ieee 1481-1999"
*DESIGN "cpu_top"
*DATE "19:44:39 Sunday June 08, 2025"
*VENDOR "The OpenROAD Project"
*PROGRAM "OpenROAD"
*VERSION "b16bda7e82721d10566ff7e2b68f1ff0be9f9e38"
*DESIGN_FLOW "NAME_SCOPE LOCAL" "PIN_CAP NONE"
*DIVIDER /
*DELIMITER :
*BUS_DELIMITER []
*T_UNIT 1 NS
*C_UNIT 1 PF
*R_UNIT 1 OHM
*L_UNIT 1 HENRY

*NAME_MAP
*3 an[0]
*4 an[1]
*5 an[2]
*6 an[3]
*7 an[4]
*8 an[5]
*9 an[6]
*10 an[7]
*11 clk
*12 net16
*13 cx[1]
*14 cx[2]
*15 cx[3]
*16 cx[4]
*17 cx[5]
*18 cx[6]
*19 cx[7]
*20 reset
*21 U7\.current_digit\[0\]
*22 U7\.current_digit\[1\]
*23 U7\.current_digit\[2\]
*24 U7\.current_digit\[3\]
*25 U7\.digit_counter\[0\]
*26 U7\.digit_counter\[1\]
*27 U7\.digit_counter\[2\]
*28 U7\.digit_counter\[3\]
*29 U7\.temp\[0\]
*30 _000_
*31 _001_
*32 _002_
*33 _003_
*34 _004_
*35 _005_
*36 _006_
*37 _007_
*38 _008_
*39 _009_
*40 _010_
*41 _011_
*42 _012_
*43 _013_
*44 _014_
*45 _015_
*46 _016_
*47 _017_
*48 _018_
*49 _019_
*50 _020_
*51 _021_
*52 _022_
*53 _023_
*54 _024_
*55 _025_
*56 _026_
*57 _027_
*58 _028_
*59 _029_
*60 _030_
*61 _031_
*62 _032_
*63 _033_
*64 _034_
*65 _035_
*66 _036_
*67 _037_
*68 _038_
*69 _039_
*70 _040_
*71 _041_
*72 _042_
*73 _043_
*74 _044_
*75 _045_
*76 _046_
*77 _047_
*78 _048_
*79 _049_
*80 _050_
*81 _051_
*82 _052_
*83 _053_
*84 _054_
*85 _055_
*86 _056_
*87 _057_
*88 _058_
*89 _059_
*90 _060_
*91 _061_
*92 _062_
*93 _063_
*94 clknet_0_clk
*95 clknet_1_0__leaf_clk
*96 clknet_1_1__leaf_clk
*97 net1
*98 net10
*99 net11
*100 net12
*101 net13
*102 net14
*103 net15
*104 net17
*105 net18
*106 net19
*107 net2
*108 net20
*109 net21
*110 net22
*111 net23
*112 net24
*113 net25
*114 net26
*115 net27
*116 net28
*117 net29
*118 net3
*119 net30
*120 net31
*121 net32
*122 net33
*123 net34
*124 net4
*125 net5
*126 net6
*127 net7
*128 net8
*129 net9
*130 FILLER_0_0_111
*131 FILLER_0_0_15
*132 FILLER_0_0_27
*133 FILLER_0_0_29
*134 FILLER_0_0_3
*135 FILLER_0_0_41
*136 FILLER_0_0_53
*137 FILLER_0_0_57
*138 FILLER_0_0_93
*139 FILLER_0_10_111
*140 FILLER_0_10_15
*141 FILLER_0_10_27
*142 FILLER_0_10_29
*143 FILLER_0_10_3
*144 FILLER_0_10_41
*145 FILLER_0_10_45
*146 FILLER_0_10_62
*147 FILLER_0_11_15
*148 FILLER_0_11_27
*149 FILLER_0_11_3
*150 FILLER_0_11_39
*151 FILLER_0_11_51
*152 FILLER_0_11_95
*153 FILLER_0_12_15
*154 FILLER_0_12_27
*155 FILLER_0_12_29
*156 FILLER_0_12_3
*157 FILLER_0_12_41
*158 FILLER_0_12_53
*159 FILLER_0_12_77
*160 FILLER_0_12_83
*161 FILLER_0_12_95
*162 FILLER_0_13_15
*163 FILLER_0_13_27
*164 FILLER_0_13_3
*165 FILLER_0_13_39
*166 FILLER_0_13_51
*167 FILLER_0_13_55
*168 FILLER_0_13_57
*169 FILLER_0_13_71
*170 FILLER_0_13_77
*171 FILLER_0_13_98
*172 FILLER_0_14_15
*173 FILLER_0_14_27
*174 FILLER_0_14_29
*175 FILLER_0_14_3
*176 FILLER_0_14_41
*177 FILLER_0_14_53
*178 FILLER_0_14_69
*179 FILLER_0_14_76
*180 FILLER_0_15_111
*181 FILLER_0_15_15
*182 FILLER_0_15_27
*183 FILLER_0_15_3
*184 FILLER_0_15_39
*185 FILLER_0_15_51
*186 FILLER_0_15_55
*187 FILLER_0_15_57
*188 FILLER_0_15_65
*189 FILLER_0_15_84
*190 FILLER_0_15_94
*191 FILLER_0_16_111
*192 FILLER_0_16_15
*193 FILLER_0_16_27
*194 FILLER_0_16_29
*195 FILLER_0_16_3
*196 FILLER_0_16_41
*197 FILLER_0_16_82
*198 FILLER_0_17_107
*199 FILLER_0_17_15
*200 FILLER_0_17_27
*201 FILLER_0_17_3
*202 FILLER_0_17_39
*203 FILLER_0_17_51
*204 FILLER_0_17_55
*205 FILLER_0_17_57
*206 FILLER_0_17_65
*207 FILLER_0_18_107
*208 FILLER_0_18_15
*209 FILLER_0_18_27
*210 FILLER_0_18_29
*211 FILLER_0_18_3
*212 FILLER_0_18_41
*213 FILLER_0_18_53
*214 FILLER_0_18_57
*215 FILLER_0_18_69
*216 FILLER_0_18_75
*217 FILLER_0_1_15
*218 FILLER_0_1_27
*219 FILLER_0_1_3
*220 FILLER_0_1_39
*221 FILLER_0_1_51
*222 FILLER_0_1_55
*223 FILLER_0_1_57
*224 FILLER_0_2_111
*225 FILLER_0_2_15
*226 FILLER_0_2_27
*227 FILLER_0_2_29
*228 FILLER_0_2_3
*229 FILLER_0_2_41
*230 FILLER_0_2_53
*231 FILLER_0_2_93
*232 FILLER_0_3_110
*233 FILLER_0_3_15
*234 FILLER_0_3_27
*235 FILLER_0_3_3
*236 FILLER_0_3_39
*237 FILLER_0_3_47
*238 FILLER_0_4_15
*239 FILLER_0_4_27
*240 FILLER_0_4_29
*241 FILLER_0_4_3
*242 FILLER_0_4_41
*243 FILLER_0_4_53
*244 FILLER_0_5_15
*245 FILLER_0_5_27
*246 FILLER_0_5_3
*247 FILLER_0_5_39
*248 FILLER_0_5_51
*249 FILLER_0_5_55
*250 FILLER_0_5_57
*251 FILLER_0_5_78
*252 FILLER_0_6_15
*253 FILLER_0_6_27
*254 FILLER_0_6_29
*255 FILLER_0_6_3
*256 FILLER_0_6_41
*257 FILLER_0_6_53
*258 FILLER_0_7_15
*259 FILLER_0_7_27
*260 FILLER_0_7_3
*261 FILLER_0_7_39
*262 FILLER_0_7_51
*263 FILLER_0_7_55
*264 FILLER_0_7_57
*265 FILLER_0_8_111
*266 FILLER_0_8_15
*267 FILLER_0_8_27
*268 FILLER_0_8_29
*269 FILLER_0_8_3
*270 FILLER_0_8_41
*271 FILLER_0_8_53
*272 FILLER_0_8_95
*273 FILLER_0_9_107
*274 FILLER_0_9_15
*275 FILLER_0_9_27
*276 FILLER_0_9_3
*277 FILLER_0_9_39
*278 FILLER_0_9_51
*279 FILLER_0_9_57
*280 FILLER_0_9_69
*281 FILLER_0_9_90
*282 PHY_EDGE_ROW_0_Left_19
*283 PHY_EDGE_ROW_0_Right_0
*284 PHY_EDGE_ROW_10_Left_29
*285 PHY_EDGE_ROW_10_Right_10
*286 PHY_EDGE_ROW_11_Left_30
*287 PHY_EDGE_ROW_11_Right_11
*288 PHY_EDGE_ROW_12_Left_31
*289 PHY_EDGE_ROW_12_Right_12
*290 PHY_EDGE_ROW_13_Left_32
*291 PHY_EDGE_ROW_13_Right_13
*292 PHY_EDGE_ROW_14_Left_33
*293 PHY_EDGE_ROW_14_Right_14
*294 PHY_EDGE_ROW_15_Left_34
*295 PHY_EDGE_ROW_15_Right_15
*296 PHY_EDGE_ROW_16_Left_35
*297 PHY_EDGE_ROW_16_Right_16
*298 PHY_EDGE_ROW_17_Left_36
*299 PHY_EDGE_ROW_17_Right_17
*300 PHY_EDGE_ROW_18_Left_37
*301 PHY_EDGE_ROW_18_Right_18
*302 PHY_EDGE_ROW_1_Left_20
*303 PHY_EDGE_ROW_1_Right_1
*304 PHY_EDGE_ROW_2_Left_21
*305 PHY_EDGE_ROW_2_Right_2
*306 PHY_EDGE_ROW_3_Left_22
*307 PHY_EDGE_ROW_3_Right_3
*308 PHY_EDGE_ROW_4_Left_23
*309 PHY_EDGE_ROW_4_Right_4
*310 PHY_EDGE_ROW_5_Left_24
*311 PHY_EDGE_ROW_5_Right_5
*312 PHY_EDGE_ROW_6_Left_25
*313 PHY_EDGE_ROW_6_Right_6
*314 PHY_EDGE_ROW_7_Left_26
*315 PHY_EDGE_ROW_7_Right_7
*316 PHY_EDGE_ROW_8_Left_27
*317 PHY_EDGE_ROW_8_Right_8
*318 PHY_EDGE_ROW_9_Left_28
*319 PHY_EDGE_ROW_9_Right_9
*320 TAP_TAPCELL_ROW_0_38
*321 TAP_TAPCELL_ROW_0_39
*322 TAP_TAPCELL_ROW_0_40
*323 TAP_TAPCELL_ROW_0_41
*324 TAP_TAPCELL_ROW_10_60
*325 TAP_TAPCELL_ROW_10_61
*326 TAP_TAPCELL_ROW_11_62
*327 TAP_TAPCELL_ROW_11_63
*328 TAP_TAPCELL_ROW_12_64
*329 TAP_TAPCELL_ROW_12_65
*330 TAP_TAPCELL_ROW_13_66
*331 TAP_TAPCELL_ROW_13_67
*332 TAP_TAPCELL_ROW_14_68
*333 TAP_TAPCELL_ROW_14_69
*334 TAP_TAPCELL_ROW_15_70
*335 TAP_TAPCELL_ROW_15_71
*336 TAP_TAPCELL_ROW_16_72
*337 TAP_TAPCELL_ROW_16_73
*338 TAP_TAPCELL_ROW_17_74
*339 TAP_TAPCELL_ROW_17_75
*340 TAP_TAPCELL_ROW_18_76
*341 TAP_TAPCELL_ROW_18_77
*342 TAP_TAPCELL_ROW_18_78
*343 TAP_TAPCELL_ROW_18_79
*344 TAP_TAPCELL_ROW_1_42
*345 TAP_TAPCELL_ROW_1_43
*346 TAP_TAPCELL_ROW_2_44
*347 TAP_TAPCELL_ROW_2_45
*348 TAP_TAPCELL_ROW_3_46
*349 TAP_TAPCELL_ROW_3_47
*350 TAP_TAPCELL_ROW_4_48
*351 TAP_TAPCELL_ROW_4_49
*352 TAP_TAPCELL_ROW_5_50
*353 TAP_TAPCELL_ROW_5_51
*354 TAP_TAPCELL_ROW_6_52
*355 TAP_TAPCELL_ROW_6_53
*356 TAP_TAPCELL_ROW_7_54
*357 TAP_TAPCELL_ROW_7_55
*358 TAP_TAPCELL_ROW_8_56
*359 TAP_TAPCELL_ROW_8_57
*360 TAP_TAPCELL_ROW_9_58
*361 TAP_TAPCELL_ROW_9_59
*362 _064_
*363 _065_
*364 _066_
*365 _067_
*366 _068_
*367 _069_
*368 _070_
*369 _071_
*370 _072_
*371 _073_
*372 _074_
*373 _075_
*374 _076_
*375 _077_
*376 _078_
*377 _079_
*378 _080_
*379 _081_
*380 _082_
*381 _083_
*382 _084_
*383 _085_
*384 _086_
*385 _087_
*386 _088_
*387 _089_
*388 _090_
*389 _091_
*390 _092_
*391 _093_
*392 _094_
*393 _095_
*394 _096_
*395 _097_
*396 _098_
*397 _099_
*398 _100_
*399 _101_
*400 _102_
*401 _103_
*402 _104_
*403 _105_
*404 _106_
*405 _107_
*406 _108_
*407 _109_
*408 _110_
*409 _111_
*410 _112_
*411 _113_
*412 _114_
*413 _115_
*414 _116_
*415 _117_
*416 _118_
*417 _119_
*418 _120_
*419 _121_
*420 _122_
*421 _123_
*422 _124_
*423 _125_
*424 _126_
*425 _127_
*426 _128_
*427 _129_
*428 _130_
*429 _131_
*430 _132_
*431 _133_
*432 _134_
*433 _135_
*434 _136_
*435 _137_
*436 _138_
*437 _139_
*438 _140_
*439 _141_
*440 _142_
*441 _143_
*442 _144_
*443 _145_
*444 _146_
*445 _147_
*446 _148_
*447 _149_
*448 _150_
*449 _151_
*450 clkbuf_0_clk
*451 clkbuf_1_0__f_clk
*452 clkbuf_1_1__f_clk
*453 cpu_top_16
*454 hold1
*455 hold10
*456 hold11
*457 hold12
*458 hold13
*459 hold14
*460 hold15
*461 hold16
*462 hold17
*463 hold18
*464 hold2
*465 hold3
*466 hold4
*467 hold5
*468 hold6
*469 hold7
*470 hold8
*471 hold9
*472 output1
*473 output10
*474 output11
*475 output12
*476 output13
*477 output14
*478 output15
*479 output2
*480 output3
*481 output4
*482 output5
*483 output6
*484 output7
*485 output8
*486 output9

*PORTS
an[0] O
an[1] O
an[2] O
an[3] O
an[4] O
an[5] O
an[6] O
an[7] O
clk I
cx[0] O
cx[1] O
cx[2] O
cx[3] O
cx[4] O
cx[5] O
cx[6] O
cx[7] O
reset I

*D_NET *3 0.00243841
*CONN
*P an[0] O
*I *472:X O *D sky130_fd_sc_hd__buf_2
*CAP
1 an[0] 0.00116869
2 *472:X 0.00116869
3 an[0] an[1] 1.7635e-05
4 an[0] *479:A 8.34031e-05
*RES
1 *472:X an[0] 10.7994 
*END

*D_NET *4 0.00364487
*CONN
*P an[1] O
*I *479:X O *D sky130_fd_sc_hd__buf_2
*CAP
1 an[1] 0.00161504
2 *479:X 0.00161504
3 an[1] an[2] 0
4 an[1] *472:A 4.86642e-05
5 an[1] *26:12 0.000235851
6 an[1] *95:34 0
7 an[1] *107:8 0.000112636
8 an[0] an[1] 1.7635e-05
*RES
1 *479:X an[1] 10.1976 
*END

*D_NET *5 0.00272362
*CONN
*P an[2] O
*I *480:X O *D sky130_fd_sc_hd__buf_2
*CAP
1 an[2] 0.00107872
2 *480:X 0.00107872
3 an[2] an[3] 0
4 an[2] *420:A3 0
5 an[2] *420:B1 0
6 an[2] *442:D 7.54284e-05
7 an[2] *446:D 0
8 an[2] *454:A 6.33103e-05
9 an[2] *480:A 0
10 an[2] *483:A 0
11 an[2] *87:25 6.58423e-05
12 an[2] *95:12 9.50342e-06
13 an[2] *95:16 0.000352086
14 an[1] an[2] 0
*RES
1 *480:X an[2] 13.1325 
*END

*D_NET *6 0.00276672
*CONN
*P an[3] O
*I *481:X O *D sky130_fd_sc_hd__buf_2
*CAP
1 an[3] 0.000977941
2 *481:X 0.000977941
3 an[3] an[4] 0
4 an[3] an[5] 0.000230708
5 an[3] *420:A1 6.68984e-05
6 an[3] *443:D 7.97854e-05
7 an[3] *444:CLK 4.77769e-05
8 an[3] *444:D 1.43717e-05
9 an[3] *466:A 4.77807e-05
10 an[3] *482:A 1.08758e-05
11 an[3] *483:A 0.000122874
12 an[3] *97:6 0.000189764
13 an[2] an[3] 0
*RES
1 *481:X an[3] 17.9516 
*END

*D_NET *7 0.00561586
*CONN
*P an[4] O
*I *482:X O *D sky130_fd_sc_hd__buf_2
*CAP
1 an[4] 0.00208873
2 *482:X 0.00208873
3 an[4] an[5] 0
4 an[4] *404:A 2.16109e-05
5 an[4] *407:A 0
6 an[4] *414:A_N 6.73616e-05
7 an[4] *438:D 7.48647e-05
8 an[4] *454:A 0.000769418
9 an[4] *464:A 0.000120253
10 an[4] *468:A 0.000112907
11 an[4] *41:19 0.000201654
12 an[4] *41:25 7.03276e-05
13 an[4] *85:43 0
14 an[4] *95:77 0
15 an[3] an[4] 0
*RES
1 *482:X an[4] 13.8201 
*END

*D_NET *8 0.0017482
*CONN
*P an[5] O
*I *483:X O *D sky130_fd_sc_hd__buf_2
*CAP
1 an[5] 0.000653003
2 *483:X 0.000653003
3 an[5] an[6] 0
4 an[5] *443:D 0.000201391
5 an[5] *464:A 1.00941e-05
6 an[3] an[5] 0.000230708
7 an[4] an[5] 0
*RES
1 *483:X an[5] 13.6333 
*END

*D_NET *9 0.00460568
*CONN
*P an[6] O
*I *484:X O *D sky130_fd_sc_hd__buf_2
*CAP
1 an[6] 0.00170464
2 *484:X 0.00170464
3 an[6] an[7] 0
4 an[6] *370:B 5.3468e-05
5 an[6] *376:A1 0.000135382
6 an[6] *379:A 0
7 an[6] *388:A 0.000444691
8 an[6] *417:A2 2.68721e-05
9 an[6] *423:B1 0
10 an[6] *447:CLK 0.000276507
11 an[6] *55:97 3.31747e-05
12 an[6] *88:14 5.29474e-05
13 an[6] *90:50 9.09639e-06
14 an[6] *91:12 0.000164257
15 an[5] an[6] 0
*RES
1 *484:X an[6] 20.8454 
*END

*D_NET *10 0.000517264
*CONN
*P an[7] O
*I *485:X O *D sky130_fd_sc_hd__buf_2
*CAP
1 an[7] 0.000243556
2 *485:X 0.000243556
3 an[7] cx[0] 0
4 an[7] *424:A2 9.58678e-06
5 an[7] *465:A 2.05641e-05
6 an[6] an[7] 0
*RES
1 *485:X an[7] 4.9633 
*END

*D_NET *11 0.0071879
*CONN
*P clk I
*I *450:A I *D sky130_fd_sc_hd__clkbuf_16
*CAP
1 clk 0.00345774
2 *450:A 0.00345774
3 *450:A *363:A 0
4 *450:A *373:A 8.53113e-06
5 *450:A *464:A 0.000221429
6 *450:A *28:18 0
7 *450:A *90:50 3.65956e-05
8 *450:A *95:34 5.86088e-06
*RES
1 clk *450:A 13.255 
*END

*D_NET *12 0.0051892
*CONN
*P cx[0] O
*I *453:HI O *D sky130_fd_sc_hd__conb_1
*CAP
1 cx[0] 0.00177713
2 *453:HI 0.00177713
3 cx[0] cx[1] 0
4 cx[0] *366:B 0.000316644
5 cx[0] *368:A 1.52352e-05
6 cx[0] *375:A2 1.84465e-05
7 cx[0] *379:B 0.000120845
8 cx[0] *452:A 2.31229e-05
9 cx[0] *458:A 2.30292e-05
10 cx[0] *28:18 0.000196566
11 cx[0] *55:40 0.000571693
12 cx[0] *55:46 0.000121102
13 cx[0] *57:8 0.000219542
14 cx[0] *58:10 8.70433e-06
15 cx[0] *90:50 0
16 an[7] cx[0] 0
*RES
1 *453:HI cx[0] 18.3513 
*END

*D_NET *13 0.00107589
*CONN
*P cx[1] O
*I *486:X O *D sky130_fd_sc_hd__buf_2
*CAP
1 cx[1] 0.000429687
2 *486:X 0.000429687
3 cx[1] cx[2] 0
4 cx[1] *484:A 0.000109338
5 cx[1] *486:A 0.000107179
6 cx[0] cx[1] 0
*RES
1 *486:X cx[1] 7.29463 
*END

*D_NET *14 0.000651552
*CONN
*P cx[2] O
*I *473:X O *D sky130_fd_sc_hd__buf_2
*CAP
1 cx[2] 0.000299676
2 *473:X 0.000299676
3 cx[2] cx[3] 0
4 cx[2] *428:D 0
5 cx[2] *473:A 2.07099e-05
6 cx[2] *486:A 3.1491e-05
7 cx[1] cx[2] 0
*RES
1 *473:X cx[2] 5.53157 
*END

*D_NET *15 0.00120449
*CONN
*P cx[3] O
*I *474:X O *D sky130_fd_sc_hd__buf_2
*CAP
1 cx[3] 0.000447337
2 *474:X 0.000447337
3 cx[3] cx[4] 0
4 cx[3] *474:A 8.32963e-05
5 cx[3] *475:A 7.4027e-05
6 cx[3] *477:A 0.000152498
7 cx[2] cx[3] 0
*RES
1 *474:X cx[3] 9.10157 
*END

*D_NET *16 0.00105993
*CONN
*P cx[4] O
*I *475:X O *D sky130_fd_sc_hd__buf_2
*CAP
1 cx[4] 0.000409855
2 *475:X 0.000409855
3 cx[4] cx[5] 0
4 cx[4] *474:A 0.000177886
5 cx[4] *475:A 6.23375e-05
6 cx[3] cx[4] 0
*RES
1 *475:X cx[4] 8.70177 
*END

*D_NET *17 0.00257474
*CONN
*P cx[5] O
*I *476:X O *D sky130_fd_sc_hd__buf_2
*CAP
1 cx[5] 0.00120119
2 *476:X 0.00120119
3 cx[5] cx[6] 0
4 cx[5] *432:CLK 6.96579e-05
5 cx[5] *475:A 3.75452e-05
6 cx[5] *477:A 0
7 cx[5] *478:A 6.51472e-05
8 cx[4] cx[5] 0
*RES
1 *476:X cx[5] 15.7748 
*END

*D_NET *18 0.00206808
*CONN
*P cx[6] O
*I *477:X O *D sky130_fd_sc_hd__buf_2
*CAP
1 cx[6] 0.00103404
2 *477:X 0.00103404
3 cx[6] cx[7] 0
4 cx[5] cx[6] 0
*RES
1 *477:X cx[6] 8.4161 
*END

*D_NET *19 0.00199075
*CONN
*P cx[7] O
*I *478:X O *D sky130_fd_sc_hd__clkbuf_4
*CAP
1 cx[7] 0.000995374
2 *478:X 0.000995374
3 cx[6] cx[7] 0
*RES
1 *478:X cx[7] 11.1484 
*END

*D_NET *21 0.00440935
*CONN
*I *373:C I *D sky130_fd_sc_hd__and3_1
*I *381:B I *D sky130_fd_sc_hd__and3_1
*I *366:B I *D sky130_fd_sc_hd__nand2_1
*I *433:Q O *D sky130_fd_sc_hd__dfxtp_1
*CAP
1 *373:C 0.000213472
2 *381:B 0.000385
3 *366:B 0.00037905
4 *433:Q 0
5 *21:10 0.000826594
6 *21:6 0.000276017
7 *366:B *363:A 0.000174735
8 *366:B *363:B 9.96477e-05
9 *366:B *366:A 5.39673e-05
10 *366:B *368:A 0.000302602
11 *366:B *373:A 7.98007e-06
12 *366:B *460:A 3.1562e-06
13 *373:C *373:A 7.48958e-05
14 *373:C *374:A 3.33212e-06
15 *373:C *375:C1 0.000121643
16 *373:C *452:A 0
17 *373:C *37:16 4.08545e-05
18 *373:C *59:12 5.83121e-06
19 *381:B *363:B 0.000161474
20 *381:B *367:A2 0.000377174
21 *381:B *381:C 9.56017e-06
22 *381:B *383:A0 0.000263979
23 *381:B *388:A 0.000165806
24 *381:B *460:A 5.56228e-05
25 *21:10 *37:16 9.03138e-05
26 cx[0] *366:B 0.000316644
*RES
1 *433:Q *21:6 3.6 
2 *21:6 *21:10 3.125 
3 *21:10 *366:B 13.91 
4 *21:10 *381:B 10.015 
5 *21:6 *373:C 10.9 
*END

*D_NET *22 0.00333667
*CONN
*I *460:A I *D sky130_fd_sc_hd__dlygate4sd3_1
*I *373:B I *D sky130_fd_sc_hd__and3_1
*I *385:A1 I *D sky130_fd_sc_hd__o21bai_1
*I *377:A I *D sky130_fd_sc_hd__nor3_1
*I *434:Q O *D sky130_fd_sc_hd__dfxtp_1
*CAP
1 *460:A 0.000387148
2 *373:B 0.000228315
3 *385:A1 0
4 *377:A 5.86871e-05
5 *434:Q 3.61363e-05
6 *22:23 0.000253407
7 *22:10 0.000290509
8 *22:6 0.000630014
9 *373:B *385:A2 1.43253e-05
10 *373:B *387:A0 8.33066e-06
11 *373:B *37:27 3.60024e-06
12 *373:B *37:40 0.000134826
13 *373:B *56:44 2.7608e-05
14 *373:B *66:12 0.000121034
15 *377:A *385:A2 1.77665e-05
16 *460:A *363:B 0.000300203
17 *460:A *367:A2 0.000119873
18 *460:A *367:B1 0.000267547
19 *460:A *37:16 8.45184e-05
20 *460:A *56:10 1.77665e-05
21 *22:6 *56:10 1.79098e-05
22 *22:10 *363:A 1.92984e-05
23 *22:10 *37:27 3.62086e-05
24 *22:10 *56:10 9.73303e-05
25 *22:10 *56:44 6.04361e-05
26 *22:23 *37:27 1.92984e-05
27 *22:23 *56:44 2.57991e-05
28 *366:B *460:A 3.1562e-06
29 *381:B *460:A 5.56228e-05
*RES
1 *434:Q *22:6 2.05 
2 *22:6 *22:10 6.185 
3 *22:10 *377:A 4.41 
4 *22:10 *22:23 0.615 
5 *22:23 *385:A1 3.6 
6 *22:23 *373:B 6.99 
7 *22:6 *460:A 9.325 
*END

*D_NET *23 0.00493025
*CONN
*I *389:A I *D sky130_fd_sc_hd__or3_1
*I *394:A I *D sky130_fd_sc_hd__inv_2
*I *390:A1 I *D sky130_fd_sc_hd__a21oi_1
*I *368:B I *D sky130_fd_sc_hd__nand2_1
*I *435:Q O *D sky130_fd_sc_hd__dfxtp_1
*CAP
1 *389:A 0.000448036
2 *394:A 0.000220376
3 *390:A1 0
4 *368:B 0.000188837
5 *435:Q 0.00039292
6 *23:33 0.000377683
7 *23:12 0.000446362
8 *23:10 0.000941174
9 *368:B *368:A 4.82919e-05
10 *368:B *387:S 6.22236e-05
11 *368:B *400:B 0.000164464
12 *368:B *37:63 1.1526e-05
13 *368:B *59:41 8.33115e-05
14 *368:B *73:10 2.30258e-05
15 *389:A *389:B 1.92979e-05
16 *389:A *398:B1 0.000110552
17 *389:A *399:B1_N 1.79536e-05
18 *389:A *477:A 1.60268e-05
19 *394:A *398:A1 8.60677e-05
20 *394:A *398:B2 1.19928e-05
21 *394:A *427:D 1.37328e-05
22 *394:A *60:67 0.000146135
23 *23:10 *395:A 9.22072e-05
24 *23:10 *395:B 3.76596e-05
25 *23:10 *435:CLK 3.64998e-06
26 *23:10 *435:D 0.000137908
27 *23:10 *436:CLK 1.83847e-05
28 *23:10 *39:21 0.000144226
29 *23:10 *56:68 0.000112771
30 *23:12 *398:A1 2.45838e-05
31 *23:12 *39:10 0.000137894
32 *23:12 *39:21 1.0145e-05
33 *23:12 *56:59 0.000195325
34 *23:12 *56:68 1.96856e-05
35 *23:12 *59:41 4.9968e-05
36 *23:33 *386:C 1.08758e-05
37 *23:33 *398:A1 8.58181e-05
38 *23:33 *59:41 1.91597e-05
*RES
1 *435:Q *23:10 10.0275 
2 *23:10 *23:12 3.0375 
3 *23:12 *368:B 7.47 
4 *23:12 *23:33 3.83 
5 *23:33 *390:A1 1.6 
6 *23:33 *394:A 4.735 
7 *23:10 *389:A 5.5697 
*END

*D_NET *24 0.00626237
*CONN
*I *381:C I *D sky130_fd_sc_hd__and3_1
*I *398:B2 I *D sky130_fd_sc_hd__o22a_1
*I *461:A I *D sky130_fd_sc_hd__dlygate4sd3_1
*I *436:Q O *D sky130_fd_sc_hd__dfxtp_1
*CAP
1 *381:C 0.00038724
2 *398:B2 0.000274713
3 *461:A 0
4 *436:Q 0.000727918
5 *24:18 0.000302407
6 *24:16 0.00114285
7 *381:C *367:A2 2.49909e-05
8 *381:C *376:A1 0
9 *381:C *379:A 0.000192868
10 *381:C *383:S 0.000132821
11 *381:C *388:A 0.000229052
12 *381:C *40:26 5.02522e-05
13 *381:C *55:91 4.77769e-05
14 *381:C *55:97 0.000214483
15 *381:C *55:123 0.000181248
16 *381:C *60:24 0.000114492
17 *398:B2 *389:C 1.18246e-05
18 *398:B2 *390:A2 8.52845e-05
19 *398:B2 *392:A2 0.000102611
20 *398:B2 *393:A2 0.000307316
21 *398:B2 *398:A1 6.33424e-05
22 *398:B2 *398:B1 4.76173e-05
23 *398:B2 *401:B 7.45046e-05
24 *398:B2 *427:D 6.77417e-05
25 *398:B2 *60:67 6.1357e-05
26 *24:16 *371:A 2.40315e-05
27 *24:16 *376:A1 0.000183738
28 *24:16 *380:A2 1.34503e-05
29 *24:16 *392:A2 0.00021287
30 *24:16 *392:B1 0.000108968
31 *24:16 *397:A1 2.90378e-05
32 *24:16 *401:A 2.49909e-05
33 *24:16 *402:A2 3.84812e-05
34 *24:16 *427:D 0.000114024
35 *24:16 *431:D 0.000364902
36 *24:16 *432:D 8.53113e-06
37 *24:16 *39:36 7.08493e-05
38 *24:16 *40:20 6.29604e-05
39 *24:16 *60:24 1.35207e-05
40 *24:16 *60:35 5.08304e-06
41 *24:16 *96:113 0
42 *24:16 *96:122 0
43 *24:18 *392:A2 3.83194e-05
44 *24:18 *427:D 8.23457e-05
45 *381:B *381:C 9.56017e-06
46 *394:A *398:B2 1.19928e-05
*RES
1 *436:Q *24:16 18.11 
2 *24:16 *24:18 0.795 
3 *24:18 *461:A 1.6 
4 *24:18 *398:B2 12.9087 
5 *24:16 *381:C 16.175 
*END

*D_NET *25 0.00487598
*CONN
*I *462:A I *D sky130_fd_sc_hd__dlygate4sd3_1
*I *463:A I *D sky130_fd_sc_hd__dlygate4sd3_1
*I *456:A I *D sky130_fd_sc_hd__dlygate4sd3_1
*I *408:B I *D sky130_fd_sc_hd__and3_1
*I *365:A2 I *D sky130_fd_sc_hd__o31ai_2
*I *437:Q O *D sky130_fd_sc_hd__dfxtp_1
*CAP
1 *462:A 0.000207402
2 *463:A 8.37624e-05
3 *456:A 0
4 *408:B 0.000398525
5 *365:A2 6.43505e-05
6 *437:Q 0
7 *25:44 0.000126493
8 *25:14 0.000876032
9 *25:10 0.00061171
10 *25:4 0.000363225
11 *365:A2 *365:A1 3.60024e-06
12 *365:A2 *410:B 1.88602e-05
13 *365:A2 *419:B 0
14 *365:A2 *26:54 9.44328e-05
15 *365:A2 *90:50 2.84608e-05
16 *408:B *410:B 0.000247243
17 *408:B *413:A 3.87203e-05
18 *408:B *26:54 5.50305e-05
19 *408:B *28:18 2.51754e-05
20 *408:B *55:10 8.09697e-05
21 *408:B *57:8 4.00258e-05
22 *462:A *441:D 4.82919e-05
23 *462:A *92:16 6.38831e-05
24 *463:A *417:A2 0.00033931
25 *463:A *482:A 0.000325083
26 *25:10 *441:D 6.85201e-05
27 *25:10 *92:16 8.81386e-06
28 *25:10 *95:77 0
29 *25:14 *365:B1 0
30 *25:14 *409:A2 0
31 *25:14 *410:B 0.000138497
32 *25:14 *440:CLK 0
33 *25:14 *441:D 5.27709e-05
34 *25:14 *26:54 4.36573e-06
35 *25:14 *27:12 0.00013079
36 *25:14 *95:77 0
37 *25:44 *417:A2 0.000198945
38 *25:44 *471:A 8.43946e-05
39 *25:44 *482:A 4.82919e-05
*RES
1 *437:Q *25:4 1.6 
2 *25:4 *25:10 4.43 
3 *25:10 *25:14 6.8025 
4 *25:14 *365:A2 4.98703 
5 *25:14 *408:B 10.0275 
6 *25:10 *25:44 3.83 
7 *25:44 *456:A 1.6 
8 *25:44 *463:A 4.81 
9 *25:4 *462:A 4.84 
*END

*D_NET *26 0.00938377
*CONN
*I *420:A1 I *D sky130_fd_sc_hd__o32a_1
*I *403:A I *D sky130_fd_sc_hd__inv_2
*I *408:A I *D sky130_fd_sc_hd__and3_1
*I *409:A1 I *D sky130_fd_sc_hd__a21oi_1
*I *365:A1 I *D sky130_fd_sc_hd__o31ai_2
*I *406:A I *D sky130_fd_sc_hd__nand2_1
*I *438:Q O *D sky130_fd_sc_hd__dfxtp_1
*CAP
1 *420:A1 0.000472429
2 *403:A 2.09808e-05
3 *408:A 0.000112019
4 *409:A1 0
5 *365:A1 2.92614e-05
6 *406:A 1.30736e-05
7 *438:Q 0
8 *26:54 0.000582572
9 *26:33 0.00133428
10 *26:18 0.00152408
11 *26:12 0.000913307
12 *26:4 0.000688209
13 *365:A1 *410:B 0
14 *365:A1 *419:B 1.07655e-05
15 *406:A *406:B 4.82919e-05
16 *406:A *87:6 1.83847e-05
17 *408:A *413:A 2.49909e-05
18 *408:A *413:B 1.61305e-05
19 *408:A *55:10 2.39856e-05
20 *420:A1 *415:A2 4.55864e-06
21 *420:A1 *418:A1 0.000199059
22 *420:A1 *418:B1_N 0
23 *420:A1 *420:A2 4.82863e-05
24 *420:A1 *420:B2 9.97903e-05
25 *420:A1 *445:D 0.000121659
26 *420:A1 *466:A 2.88357e-05
27 *420:A1 *482:A 4.60814e-05
28 *420:A1 *90:54 4.09813e-05
29 *420:A1 *90:56 0.000146584
30 *420:A1 *95:34 4.61701e-06
31 *420:A1 *97:6 0.000306859
32 *420:A1 *122:6 4.21973e-05
33 *26:12 *418:A2 0.000136261
34 *26:12 *472:A 0.000202349
35 *26:12 *479:A 4.50306e-05
36 *26:12 *85:10 2.937e-05
37 *26:12 *107:8 5.30673e-05
38 *26:18 *407:B 0.000185961
39 *26:18 *421:A1 0.00015997
40 *26:18 *85:10 2.86975e-05
41 *26:33 *407:B 4.20983e-05
42 *26:33 *421:A1 0.000312011
43 *26:33 *86:10 7.45625e-05
44 *26:33 *90:23 0.000220024
45 *26:33 *90:50 3.67918e-05
46 *26:33 *93:10 0.000196997
47 *26:54 *365:B1 8.24284e-06
48 *26:54 *409:B1 4.82863e-05
49 *26:54 *410:B 1.19928e-05
50 *26:54 *27:12 3.97211e-05
51 *26:54 *55:10 3.25068e-05
52 *26:54 *57:8 0.000114492
53 *26:54 *90:50 2.28823e-05
54 an[1] *26:12 0.000235851
55 an[3] *420:A1 6.68984e-05
56 *365:A2 *365:A1 3.60024e-06
57 *365:A2 *26:54 9.44328e-05
58 *408:B *26:54 5.50305e-05
59 *25:14 *26:54 4.36573e-06
*RES
1 *438:Q *26:4 1.6 
2 *26:4 *26:12 9.88 
3 *26:12 *26:18 14.255 
4 *26:18 *406:A 4.05 
5 *26:18 *26:33 7.56777 
6 *26:33 *365:A1 4.5875 
7 *26:33 *26:54 6.19337 
8 *26:54 *409:A1 1.6 
9 *26:54 *408:A 3.1 
10 *26:12 *403:A 1.96 
11 *26:4 *420:A1 16.37 
*END

*D_NET *27 0.0040008
*CONN
*I *457:A I *D sky130_fd_sc_hd__dlygate4sd3_1
*I *413:B I *D sky130_fd_sc_hd__or2_1
*I *408:C I *D sky130_fd_sc_hd__and3_1
*I *365:A3 I *D sky130_fd_sc_hd__o31ai_2
*I *419:B I *D sky130_fd_sc_hd__nand2_1
*I *439:Q O *D sky130_fd_sc_hd__dfxtp_1
*CAP
1 *457:A 0
2 *413:B 5.66666e-05
3 *408:C 0
4 *365:A3 0
5 *419:B 0.000334947
6 *439:Q 0.000166103
7 *27:56 0.000109577
8 *27:48 0.000173185
9 *27:18 0.000354708
10 *27:12 0.00030614
11 *413:B *413:A 0.00011794
12 *413:B *423:A2 4.82919e-05
13 *419:B *410:B 0
14 *419:B *422:B 0.000167507
15 *419:B *423:B1 0.000308582
16 *419:B *440:CLK 0.00019993
17 *419:B *440:D 9.21068e-05
18 *419:B *28:8 0.000382949
19 *27:12 *365:B1 0
20 *27:12 *93:35 4.40446e-05
21 *27:18 *422:B 4.95273e-05
22 *27:18 *423:B1 1.28384e-05
23 *27:48 *365:B1 4.82863e-05
24 *27:48 *422:B 0.000188405
25 *27:48 *423:B1 0.000361499
26 *27:56 *379:A 0.000139252
27 *27:56 *413:A 3.33212e-06
28 *27:56 *90:50 6.28498e-05
29 *27:56 *90:52 4.38051e-05
30 *27:56 *90:54 3.09233e-05
31 *365:A1 *419:B 1.07655e-05
32 *365:A2 *419:B 0
33 *408:A *413:B 1.61305e-05
34 *25:14 *27:12 0.00013079
35 *26:54 *27:12 3.97211e-05
*RES
1 *439:Q *27:12 8.375 
2 *27:12 *27:18 0.705 
3 *27:18 *419:B 14.975 
4 *27:18 *365:A3 1.6 
5 *27:12 *27:48 4.02 
6 *27:48 *27:56 5.8 
7 *27:56 *408:C 1.6 
8 *27:56 *413:B 3.04 
9 *27:48 *457:A 1.6 
*END

*D_NET *28 0.00362009
*CONN
*I *362:A I *D sky130_fd_sc_hd__clkbuf_4
*I *373:A I *D sky130_fd_sc_hd__and3_1
*I *458:A I *D sky130_fd_sc_hd__dlygate4sd3_1
*I *440:Q O *D sky130_fd_sc_hd__dfxtp_1
*CAP
1 *362:A 3.3365e-05
2 *373:A 0.000295802
3 *458:A 1.78877e-05
4 *440:Q 0.000453682
5 *28:18 0.000565942
6 *28:8 0.0007393
7 *362:A *410:B 5.83121e-06
8 *373:A *368:A 0.000144686
9 *373:A *375:B1 0.000175088
10 *373:A *37:16 0.00012595
11 *373:A *57:8 0
12 *373:A *58:10 0.00011272
13 *373:A *59:12 4.66108e-05
14 *458:A *58:10 7.00889e-06
15 *28:8 *440:CLK 7.54365e-05
16 *28:8 *440:D 5.12912e-05
17 *28:18 *410:B 5.03635e-05
18 cx[0] *458:A 2.30292e-05
19 cx[0] *28:18 0.000196566
20 *366:B *373:A 7.98007e-06
21 *373:C *373:A 7.48958e-05
22 *408:B *28:18 2.51754e-05
23 *419:B *28:8 0.000382949
24 *450:A *373:A 8.53113e-06
25 *450:A *28:18 0
*RES
1 *440:Q *28:8 7.585 
2 *28:8 *28:18 8.59 
3 *28:18 *458:A 2.05 
4 *28:18 *373:A 12.32 
5 *28:8 *362:A 2.05 
*END

*D_NET *29 0.000301042
*CONN
*I *455:A I *D sky130_fd_sc_hd__dlygate4sd3_1
*I *441:Q O *D sky130_fd_sc_hd__dfxtp_1
*CAP
1 *455:A 4.27849e-05
2 *441:Q 4.27849e-05
3 *455:A *404:B 0.000124007
4 *455:A *416:B1 1.47347e-05
5 *455:A *441:D 7.67311e-05
*RES
1 *441:Q *455:A 4.7 
*END

*D_NET *30 0.00129583
*CONN
*I *426:D I *D sky130_fd_sc_hd__dfxtp_1
*I *380:Y O *D sky130_fd_sc_hd__o21ai_1
*CAP
1 *426:D 0.000238774
2 *380:Y 0.000238774
3 *426:D *380:B1 0.000461407
4 *426:D *427:D 0.000356876
*RES
1 *380:Y *426:D 13.83 
*END

*D_NET *31 0.00190505
*CONN
*I *427:D I *D sky130_fd_sc_hd__dfxtp_1
*I *384:X O *D sky130_fd_sc_hd__clkbuf_1
*CAP
1 *427:D 0.000466174
2 *384:X 0.000466174
3 *427:D *370:B 8.23457e-05
4 *427:D *380:A2 3.0807e-05
5 *427:D *380:B1 1.07797e-05
6 *427:D *428:CLK 8.40269e-05
7 *427:D *428:D 0.000130021
8 *394:A *427:D 1.37328e-05
9 *398:B2 *427:D 6.77417e-05
10 *426:D *427:D 0.000356876
11 *24:16 *427:D 0.000114024
12 *24:18 *427:D 8.23457e-05
*RES
1 *384:X *427:D 17.49 
*END

*D_NET *32 0.00107443
*CONN
*I *428:D I *D sky130_fd_sc_hd__dfxtp_1
*I *388:X O *D sky130_fd_sc_hd__clkbuf_1
*CAP
1 *428:D 0.000336327
2 *388:X 0.000336327
3 *428:D *484:A 0.000271759
4 cx[2] *428:D 0
5 *427:D *428:D 0.000130021
*RES
1 *388:X *428:D 14.9288 
*END

*D_NET *33 0.00121827
*CONN
*I *429:D I *D sky130_fd_sc_hd__dfxtp_1
*I *393:Y O *D sky130_fd_sc_hd__a21oi_1
*CAP
1 *429:D 0.000310648
2 *393:Y 0.000310648
3 *429:D *371:A 8.40269e-05
4 *429:D *393:B1 5.4857e-05
5 *429:D *397:A1 0.000109786
6 *429:D *397:B1 8.49205e-05
7 *429:D *402:A2 1.56428e-05
8 *429:D *431:D 0.000233004
9 *429:D *40:6 1.47347e-05
*RES
1 *393:Y *429:D 13.32 
*END

*D_NET *34 0.000328833
*CONN
*I *430:D I *D sky130_fd_sc_hd__dfxtp_1
*I *397:Y O *D sky130_fd_sc_hd__a21oi_1
*CAP
1 *430:D 4.39925e-05
2 *397:Y 4.39925e-05
3 *430:D *397:B1 2.60826e-05
4 *430:D *430:CLK 3.49678e-05
5 *430:D *476:A 0.000179797
*RES
1 *397:Y *430:D 4.8425 
*END

*D_NET *35 0.00175625
*CONN
*I *431:D I *D sky130_fd_sc_hd__dfxtp_1
*I *399:X O *D sky130_fd_sc_hd__o21ba_1
*CAP
1 *431:D 0.000329907
2 *399:X 0.000329907
3 *431:D *392:B1 4.94326e-05
4 *431:D *402:A2 7.67415e-06
5 *431:D *402:B1 0.000191232
6 *431:D *402:B2 2.0514e-05
7 *431:D *432:D 4.82919e-05
8 *431:D *96:113 0.000141606
9 *431:D *96:122 3.97827e-05
10 *429:D *431:D 0.000233004
11 *24:16 *431:D 0.000364902
*RES
1 *399:X *431:D 15.3038 
*END

*D_NET *36 0.000739287
*CONN
*I *432:D I *D sky130_fd_sc_hd__dfxtp_1
*I *402:X O *D sky130_fd_sc_hd__a22o_1
*CAP
1 *432:D 0.000200328
2 *402:X 0.000200328
3 *432:D *397:A1 3.60368e-05
4 *432:D *432:CLK 0.000147474
5 *432:D *476:A 0
6 *432:D *478:A 7.36892e-05
7 *432:D *40:68 0
8 *432:D *96:122 2.46089e-05
9 *431:D *432:D 4.82919e-05
10 *24:16 *432:D 8.53113e-06
*RES
1 *402:X *432:D 11.4937 
*END

*D_NET *37 0.00826301
*CONN
*I *386:B I *D sky130_fd_sc_hd__and3_1
*I *389:C I *D sky130_fd_sc_hd__or3_1
*I *372:A2 I *D sky130_fd_sc_hd__a21o_1
*I *399:A1 I *D sky130_fd_sc_hd__o21ba_1
*I *395:B I *D sky130_fd_sc_hd__and2_1
*I *385:B1_N I *D sky130_fd_sc_hd__o21bai_1
*I *377:B I *D sky130_fd_sc_hd__nor3_1
*I *433:D I *D sky130_fd_sc_hd__dfxtp_1
*I *367:Y O *D sky130_fd_sc_hd__o21ai_2
*CAP
1 *386:B 0
2 *389:C 0.000263099
3 *372:A2 0
4 *399:A1 0.000126574
5 *395:B 0.000168822
6 *385:B1_N 6.17322e-05
7 *377:B 0
8 *433:D 5.37395e-05
9 *367:Y 0.000609586
10 *37:81 0.000492152
11 *37:73 0.000672849
12 *37:63 0.000587818
13 *37:40 0.000534381
14 *37:27 0.00017707
15 *37:16 0.00074257
16 *389:C *398:A1 4.77757e-05
17 *389:C *398:A2 7.59326e-05
18 *389:C *398:B1 6.29954e-05
19 *389:C *399:B1_N 1.6503e-05
20 *389:C *61:10 0.000287239
21 *395:B *395:A 3.12735e-05
22 *395:B *398:A2 2.75145e-05
23 *395:B *436:D 4.82863e-05
24 *395:B *39:21 4.9968e-05
25 *399:A1 *389:B 0.000158344
26 *399:A1 *401:B 2.51484e-05
27 *433:D *375:C1 0.000198402
28 *433:D *96:20 7.45048e-05
29 *37:16 *367:B1 0.000377714
30 *37:16 *375:B1 0.000119866
31 *37:16 *375:C1 0.000230648
32 *37:16 *452:A 0
33 *37:16 *55:87 2.0187e-05
34 *37:16 *55:91 3.12916e-05
35 *37:16 *96:20 3.54955e-05
36 *37:27 *368:A 8.40388e-05
37 *37:40 *368:A 2.61042e-05
38 *37:40 *385:A2 0.000194906
39 *37:40 *387:A0 4.77807e-05
40 *37:63 *368:A 2.46961e-05
41 *37:63 *387:A0 2.53473e-05
42 *37:63 *387:S 8.75667e-05
43 *37:63 *56:44 0.000202999
44 *37:63 *56:59 3.74415e-05
45 *37:63 *73:10 7.01359e-05
46 *37:63 *96:44 5.00391e-05
47 *37:73 *398:A2 0.000122725
48 *37:73 *56:59 1.56428e-05
49 *37:73 *96:44 0
50 *37:81 *389:B 0.000118081
51 *37:81 *398:A2 1.92984e-05
52 *37:81 *435:D 1.91597e-05
53 *37:81 *56:59 8.30853e-06
54 *37:81 *56:68 0.000102682
55 *368:B *37:63 1.1526e-05
56 *373:A *37:16 0.00012595
57 *373:B *37:27 3.60024e-06
58 *373:B *37:40 0.000134826
59 *373:C *37:16 4.08545e-05
60 *398:B2 *389:C 1.18246e-05
61 *460:A *37:16 8.45184e-05
62 *21:10 *37:16 9.03138e-05
63 *22:10 *37:27 3.62086e-05
64 *22:23 *37:27 1.92984e-05
65 *23:10 *395:B 3.76596e-05
*RES
1 *367:Y *37:16 16.325 