*SPEF "ieee 1481-1999"
*DESIGN "cpu_top"
*DATE "19:44:42 Sunday June 08, 2025"
*VENDOR "The OpenROAD Project"
*PROGRAM "OpenROAD"
*VERSION "b16bda7e82721d10566ff7e2b68f1ff0be9f9e38"
*DESIGN_FLOW "NAME_SCOPE LOCAL" "PIN_CAP NONE"
*DIVIDER /
*DELIMITER :
*BUS_DELIMITER []
*T_UNIT 1 NS
*C_UNIT 1 PF
*R_UNIT 1 OHM
*L_UNIT 1 HENRY

*NAME_MAP
*3 an[0]
*4 an[1]
*5 an[2]
*6 an[3]
*7 an[4]
*8 an[5]
*9 an[6]
*10 an[7]
*11 clk
*12 net16
*13 cx[1]
*14 cx[2]
*15 cx[3]
*16 cx[4]
*17 cx[5]
*18 cx[6]
*19 cx[7]
*20 reset
*21 U7\.current_digit\[0\]
*22 U7\.current_digit\[1\]
*23 U7\.current_digit\[2\]
*24 U7\.current_digit\[3\]
*25 U7\.digit_counter\[0\]
*26 U7\.digit_counter\[1\]
*27 U7\.digit_counter\[2\]
*28 U7\.digit_counter\[3\]
*29 U7\.temp\[0\]
*30 _000_
*31 _001_
*32 _002_
*33 _003_
*34 _004_
*35 _005_
*36 _006_
*37 _007_
*38 _008_
*39 _009_
*40 _010_
*41 _011_
*42 _012_
*43 _013_
*44 _014_
*45 _015_
*46 _016_
*47 _017_
*48 _018_
*49 _019_
*50 _020_
*51 _021_
*52 _022_
*53 _023_
*54 _024_
*55 _025_
*56 _026_
*57 _027_
*58 _028_
*59 _029_
*60 _030_
*61 _031_
*62 _032_
*63 _033_
*64 _034_
*65 _035_
*66 _036_
*67 _037_
*68 _038_
*69 _039_
*70 _040_
*71 _041_
*72 _042_
*73 _043_
*74 _044_
*75 _045_
*76 _046_
*77 _047_
*78 _048_
*79 _049_
*80 _050_
*81 _051_
*82 _052_
*83 _053_
*84 _054_
*85 _055_
*86 _056_
*87 _057_
*88 _058_
*89 _059_
*90 _060_
*91 _061_
*92 _062_
*93 _063_
*94 clknet_0_clk
*95 clknet_1_0__leaf_clk
*96 clknet_1_1__leaf_clk
*97 net1
*98 net10
*99 net11
*100 net12
*101 net13
*102 net14
*103 net15
*104 net17
*105 net18
*106 net19
*107 net2
*108 net20
*109 net21
*110 net22
*111 net23
*112 net24
*113 net25
*114 net26
*115 net27
*116 net28
*117 net29
*118 net3
*119 net30
*120 net31
*121 net32
*122 net33
*123 net34
*124 net4
*125 net5
*126 net6
*127 net7
*128 net8
*129 net9
*130 FILLER_0_0_111
*131 FILLER_0_0_15
*132 FILLER_0_0_27
*133 FILLER_0_0_29
*134 FILLER_0_0_3
*135 FILLER_0_0_41
*136 FILLER_0_0_53
*137 FILLER_0_0_57
*138 FILLER_0_0_93
*139 FILLER_0_10_111
*140 FILLER_0_10_15
*141 FILLER_0_10_27
*142 FILLER_0_10_29
*143 FILLER_0_10_3
*144 FILLER_0_10_41
*145 FILLER_0_10_45
*146 FILLER_0_10_62
*147 FILLER_0_11_15
*148 FILLER_0_11_27
*149 FILLER_0_11_3
*150 FILLER_0_11_39
*151 FILLER_0_11_51
*152 FILLER_0_11_95
*153 FILLER_0_12_15
*154 FILLER_0_12_27
*155 FILLER_0_12_29
*156 FILLER_0_12_3
*157 FILLER_0_12_41
*158 FILLER_0_12_53
*159 FILLER_0_12_77
*160 FILLER_0_12_83
*161 FILLER_0_12_95
*162 FILLER_0_13_15
*163 FILLER_0_13_27
*164 FILLER_0_13_3
*165 FILLER_0_13_39
*166 FILLER_0_13_51
*167 FILLER_0_13_55
*168 FILLER_0_13_57
*169 FILLER_0_13_71
*170 FILLER_0_13_77
*171 FILLER_0_13_98
*172 FILLER_0_14_15
*173 FILLER_0_14_27
*174 FILLER_0_14_29
*175 FILLER_0_14_3
*176 FILLER_0_14_41
*177 FILLER_0_14_53
*178 FILLER_0_14_69
*179 FILLER_0_14_76
*180 FILLER_0_15_111
*181 FILLER_0_15_15
*182 FILLER_0_15_27
*183 FILLER_0_15_3
*184 FILLER_0_15_39
*185 FILLER_0_15_51
*186 FILLER_0_15_55
*187 FILLER_0_15_57
*188 FILLER_0_15_65
*189 FILLER_0_15_84
*190 FILLER_0_15_94
*191 FILLER_0_16_111
*192 FILLER_0_16_15
*193 FILLER_0_16_27
*194 FILLER_0_16_29
*195 FILLER_0_16_3
*196 FILLER_0_16_41
*197 FILLER_0_16_82
*198 FILLER_0_17_107
*199 FILLER_0_17_15
*200 FILLER_0_17_27
*201 FILLER_0_17_3
*202 FILLER_0_17_39
*203 FILLER_0_17_51
*204 FILLER_0_17_55
*205 FILLER_0_17_57
*206 FILLER_0_17_65
*207 FILLER_0_18_107
*208 FILLER_0_18_15
*209 FILLER_0_18_27
*210 FILLER_0_18_29
*211 FILLER_0_18_3
*212 FILLER_0_18_41
*213 FILLER_0_18_53
*214 FILLER_0_18_57
*215 FILLER_0_18_69
*216 FILLER_0_18_75
*217 FILLER_0_1_15
*218 FILLER_0_1_27
*219 FILLER_0_1_3
*220 FILLER_0_1_39
*221 FILLER_0_1_51
*222 FILLER_0_1_55
*223 FILLER_0_1_57
*224 FILLER_0_2_111
*225 FILLER_0_2_15
*226 FILLER_0_2_27
*227 FILLER_0_2_29
*228 FILLER_0_2_3
*229 FILLER_0_2_41
*230 FILLER_0_2_53
*231 FILLER_0_2_93
*232 FILLER_0_3_110
*233 FILLER_0_3_15
*234 FILLER_0_3_27
*235 FILLER_0_3_3
*236 FILLER_0_3_39
*237 FILLER_0_3_47
*238 FILLER_0_4_15
*239 FILLER_0_4_27
*240 FILLER_0_4_29
*241 FILLER_0_4_3
*242 FILLER_0_4_41
*243 FILLER_0_4_53
*244 FILLER_0_5_15
*245 FILLER_0_5_27
*246 FILLER_0_5_3
*247 FILLER_0_5_39
*248 FILLER_0_5_51
*249 FILLER_0_5_55
*250 FILLER_0_5_57
*251 FILLER_0_5_78
*252 FILLER_0_6_15
*253 FILLER_0_6_27
*254 FILLER_0_6_29
*255 FILLER_0_6_3
*256 FILLER_0_6_41
*257 FILLER_0_6_53
*258 FILLER_0_7_15
*259 FILLER_0_7_27
*260 FILLER_0_7_3
*261 FILLER_0_7_39
*262 FILLER_0_7_51
*263 FILLER_0_7_55
*264 FILLER_0_7_57
*265 FILLER_0_8_111
*266 FILLER_0_8_15
*267 FILLER_0_8_27
*268 FILLER_0_8_29
*269 FILLER_0_8_3
*270 FILLER_0_8_41
*271 FILLER_0_8_53
*272 FILLER_0_8_95
*273 FILLER_0_9_107
*274 FILLER_0_9_15
*275 FILLER_0_9_27
*276 FILLER_0_9_3
*277 FILLER_0_9_39
*278 FILLER_0_9_51
*279 FILLER_0_9_57
*280 FILLER_0_9_69
*281 FILLER_0_9_90
*282 PHY_EDGE_ROW_0_Left_19
*283 PHY_EDGE_ROW_0_Right_0
*284 PHY_EDGE_ROW_10_Left_29
*285 PHY_EDGE_ROW_10_Right_10
*286 PHY_EDGE_ROW_11_Left_30
*287 PHY_EDGE_ROW_11_Right_11
*288 PHY_EDGE_ROW_12_Left_31
*289 PHY_EDGE_ROW_12_Right_12
*290 PHY_EDGE_ROW_13_Left_32
*291 PHY_EDGE_ROW_13_Right_13
*292 PHY_EDGE_ROW_14_Left_33
*293 PHY_EDGE_ROW_14_Right_14
*294 PHY_EDGE_ROW_15_Left_34
*295 PHY_EDGE_ROW_15_Right_15
*296 PHY_EDGE_ROW_16_Left_35
*297 PHY_EDGE_ROW_16_Right_16
*298 PHY_EDGE_ROW_17_Left_36
*299 PHY_EDGE_ROW_17_Right_17
*300 PHY_EDGE_ROW_18_Left_37
*301 PHY_EDGE_ROW_18_Right_18
*302 PHY_EDGE_ROW_1_Left_20
*303 PHY_EDGE_ROW_1_Right_1
*304 PHY_EDGE_ROW_2_Left_21
*305 PHY_EDGE_ROW_2_Right_2
*306 PHY_EDGE_ROW_3_Left_22
*307 PHY_EDGE_ROW_3_Right_3
*308 PHY_EDGE_ROW_4_Left_23
*309 PHY_EDGE_ROW_4_Right_4
*310 PHY_EDGE_ROW_5_Left_24
*311 PHY_EDGE_ROW_5_Right_5
*312 PHY_EDGE_ROW_6_Left_25
*313 PHY_EDGE_ROW_6_Right_6
*314 PHY_EDGE_ROW_7_Left_26
*315 PHY_EDGE_ROW_7_Right_7
*316 PHY_EDGE_ROW_8_Left_27
*317 PHY_EDGE_ROW_8_Right_8
*318 PHY_EDGE_ROW_9_Left_28
*319 PHY_EDGE_ROW_9_Right_9
*320 TAP_TAPCELL_ROW_0_38
*321 TAP_TAPCELL_ROW_0_39
*322 TAP_TAPCELL_ROW_0_40
*323 TAP_TAPCELL_ROW_0_41
*324 TAP_TAPCELL_ROW_10_60
*325 TAP_TAPCELL_ROW_10_61
*326 TAP_TAPCELL_ROW_11_62
*327 TAP_TAPCELL_ROW_11_63
*328 TAP_TAPCELL_ROW_12_64
*329 TAP_TAPCELL_ROW_12_65
*330 TAP_TAPCELL_ROW_13_66
*331 TAP_TAPCELL_ROW_13_67
*332 TAP_TAPCELL_ROW_14_68
*333 TAP_TAPCELL_ROW_14_69
*334 TAP_TAPCELL_ROW_15_70
*335 TAP_TAPCELL_ROW_15_71
*336 TAP_TAPCELL_ROW_16_72
*337 TAP_TAPCELL_ROW_16_73
*338 TAP_TAPCELL_ROW_17_74
*339 TAP_TAPCELL_ROW_17_75
*340 TAP_TAPCELL_ROW_18_76
*341 TAP_TAPCELL_ROW_18_77
*342 TAP_TAPCELL_ROW_18_78
*343 TAP_TAPCELL_ROW_18_79
*344 TAP_TAPCELL_ROW_1_42
*345 TAP_TAPCELL_ROW_1_43
*346 TAP_TAPCELL_ROW_2_44
*347 TAP_TAPCELL_ROW_2_45
*348 TAP_TAPCELL_ROW_3_46
*349 TAP_TAPCELL_ROW_3_47
*350 TAP_TAPCELL_ROW_4_48
*351 TAP_TAPCELL_ROW_4_49
*352 TAP_TAPCELL_ROW_5_50
*353 TAP_TAPCELL_ROW_5_51
*354 TAP_TAPCELL_ROW_6_52
*355 TAP_TAPCELL_ROW_6_53
*356 TAP_TAPCELL_ROW_7_54
*357 TAP_TAPCELL_ROW_7_55
*358 TAP_TAPCELL_ROW_8_56
*359 TAP_TAPCELL_ROW_8_57
*360 TAP_TAPCELL_ROW_9_58
*361 TAP_TAPCELL_ROW_9_59
*362 _064_
*363 _065_
*364 _066_
*365 _067_
*366 _068_
*367 _069_
*368 _070_
*369 _071_
*370 _072_
*371 _073_
*372 _074_
*373 _075_
*374 _076_
*375 _077_
*376 _078_
*377 _079_
*378 _080_
*379 _081_
*380 _082_
*381 _083_
*382 _084_
*383 _085_
*384 _086_
*385 _087_
*386 _088_
*387 _089_
*388 _090_
*389 _091_
*390 _092_
*391 _093_
*392 _094_
*393 _095_
*394 _096_
*395 _097_
*396 _098_
*397 _099_
*398 _100_
*399 _101_
*400 _102_
*401 _103_
*402 _104_
*403 _105_
*404 _106_
*405 _107_
*406 _108_
*407 _109_
*408 _110_
*409 _111_
*410 _112_
*411 _113_
*412 _114_
*413 _115_
*414 _116_
*415 _117_
*416 _118_
*417 _119_
*418 _120_
*419 _121_
*420 _122_
*421 _123_
*422 _124_
*423 _125_
*424 _126_
*425 _127_
*426 _128_
*427 _129_
*428 _130_
*429 _131_
*430 _132_
*431 _133_
*432 _134_
*433 _135_
*434 _136_
*435 _137_
*436 _138_
*437 _139_
*438 _140_
*439 _141_
*440 _142_
*441 _143_
*442 _144_
*443 _145_
*444 _146_
*445 _147_
*446 _148_
*447 _149_
*448 _150_
*449 _151_
*450 clkbuf_0_clk
*451 clkbuf_1_0__f_clk
*452 clkbuf_1_1__f_clk
*453 cpu_top_16
*454 hold1
*455 hold10
*456 hold11
*457 hold12
*458 hold13
*459 hold14
*460 hold15
*461 hold16
*462 hold17
*463 hold18
*464 hold2
*465 hold3
*466 hold4
*467 hold5
*468 hold6
*469 hold7
*470 hold8
*471 hold9
*472 output1
*473 output10
*474 output11
*475 output12
*476 output13
*477 output14
*478 output15
*479 output2
*480 output3
*481 output4
*482 output5
*483 output6
*484 output7
*485 output8
*486 output9

*PORTS
an[0] O
an[1] O
an[2] O
an[3] O
an[4] O
an[5] O
an[6] O
an[7] O
clk I
cx[0] O
cx[1] O
cx[2] O
cx[3] O
cx[4] O
cx[5] O
cx[6] O
cx[7] O
reset I

*D_NET *3 0.00261413
*CONN
*P an[0] O
*I *472:X O *D sky130_fd_sc_hd__buf_2
*CAP
1 an[0] 0.00124968
2 *472:X 0.00124968
3 an[0] an[1] 1.90936e-05
4 an[0] *479:A 9.56645e-05
*RES
1 *472:X an[0] 25.3065 
*END

*D_NET *4 0.00392612
*CONN
*P an[1] O
*I *479:X O *D sky130_fd_sc_hd__buf_2
*CAP
1 an[1] 0.00172867
2 *479:X 0.00172867
3 an[1] an[2] 0
4 an[1] *472:A 5.33614e-05
5 an[1] *26:12 0.000272174
6 an[1] *95:34 0
7 an[1] *107:8 0.000124157
8 an[0] an[1] 1.90936e-05
*RES
1 *479:X an[1] 24.5929 
*END

*D_NET *5 0.00293898
*CONN
*P an[2] O
*I *480:X O *D sky130_fd_sc_hd__buf_2
*CAP
1 an[2] 0.00116646
2 *480:X 0.00116646
3 an[2] an[3] 0
4 an[2] *420:A3 0
5 an[2] *420:B1 0
6 an[2] *442:D 7.72438e-05
7 an[2] *446:D 0
8 an[2] *454:A 6.57032e-05
9 an[2] *480:A 0
10 an[2] *483:A 0
11 an[2] *87:25 6.86792e-05
12 an[2] *95:12 1.02504e-05
13 an[2] *95:16 0.000384193
14 an[1] an[2] 0
*RES
1 *480:X an[2] 28.0246 
*END

*D_NET *6 0.00302928
*CONN
*P an[3] O
*I *481:X O *D sky130_fd_sc_hd__buf_2
*CAP
1 an[3] 0.00108313
2 *481:X 0.00108313
3 an[3] an[4] 0
4 an[3] an[5] 0.000254083
5 an[3] *420:A1 6.93627e-05
6 an[3] *443:D 8.16015e-05
7 an[3] *444:CLK 5.49995e-05
8 an[3] *444:D 1.64343e-05
9 an[3] *466:A 5.50052e-05
10 an[3] *483:A 0.00013445
11 an[3] *97:6 0.000184652
12 an[3] *125:28 1.24368e-05
13 an[2] an[3] 0
*RES
1 *481:X an[3] 33.7319 
*END

*D_NET *7 0.00618816
*CONN
*P an[4] O
*I *482:X O *D sky130_fd_sc_hd__buf_2
*CAP
1 an[4] 0.00228537
2 *482:X 0.00228537
3 an[4] an[5] 0
4 an[4] *404:A 2.10063e-05
5 an[4] *407:A 0
6 an[4] *414:A_N 6.87234e-05
7 an[4] *438:D 8.14891e-05
8 an[4] *454:A 0.000909655
9 an[4] *464:A 0.000115853
10 an[4] *468:A 0.000124083
11 an[4] *41:19 0.000219195
12 an[4] *41:25 7.74135e-05
13 an[4] *85:43 0
14 an[4] *95:77 0
15 an[3] an[4] 0
*RES
1 *482:X an[4] 28.9405 
*END

*D_NET *8 0.00189876
*CONN
*P an[5] O
*I *483:X O *D sky130_fd_sc_hd__buf_2
*CAP
1 an[5] 0.000719348
2 *483:X 0.000719348
3 an[5] an[6] 0
4 an[5] *443:D 0.000195785
5 an[5] *464:A 1.01912e-05
6 an[3] an[5] 0.000254083
7 an[4] an[5] 0
*RES
1 *483:X an[5] 28.5884 
*END

*D_NET *9 0.00509563
*CONN
*P an[6] O
*I *484:X O *D sky130_fd_sc_hd__buf_2
*CAP
1 an[6] 0.00190065
2 *484:X 0.00190065
3 an[6] an[7] 0
4 an[6] *370:B 5.12583e-05
5 an[6] *376:A1 0.00014925
6 an[6] *379:A 0
7 an[6] *417:A2 2.82057e-05
8 an[6] *447:CLK 0.000302912
9 an[6] *54:22 0
10 an[6] *55:97 3.36534e-05
11 an[6] *74:20 0.000489296
12 an[6] *88:14 5.32236e-05
13 an[6] *90:50 8.50207e-06
14 an[6] *91:12 0.000178026
15 an[5] an[6] 0
*RES
1 *484:X an[6] 37.2255 
*END

*D_NET *10 0.000552649
*CONN
*P an[7] O
*I *485:X O *D sky130_fd_sc_hd__buf_2
*CAP
1 an[7] 0.00026042
2 *485:X 0.00026042
3 an[7] cx[0] 0
4 an[7] *424:A2 9.60337e-06
5 an[7] *465:A 2.22043e-05
6 an[6] an[7] 0
*RES
1 *485:X an[7] 18.267 
*END

*D_NET *11 0.00794272
*CONN
*P clk I
*I *450:A I *D sky130_fd_sc_hd__clkbuf_16
*CAP
1 clk 0.0038288
2 *450:A 0.0038288
3 *450:A *363:A 0
4 *450:A *373:A 9.25014e-06
5 *450:A *464:A 0.000227861
6 *450:A *28:18 0
7 *450:A *90:50 4.10533e-05
8 *450:A *95:34 6.9624e-06
*RES
1 clk *450:A 34.0465 
*END

*D_NET *12 0.00568741
*CONN
*P cx[0] O
*I *453:HI O *D sky130_fd_sc_hd__conb_1
*CAP
1 cx[0] 0.00192406
2 *453:HI 0.00192406
3 cx[0] cx[1] 0
4 cx[0] *366:B 0.000363347
5 cx[0] *368:A 1.59373e-05
6 cx[0] *375:A2 2.02794e-05
7 cx[0] *379:B 0.000122502
8 cx[0] *452:A 2.22891e-05
9 cx[0] *458:A 2.44318e-05
10 cx[0] *28:18 0.000226264
11 cx[0] *55:40 0.000656649
12 cx[0] *55:46 0.000139323
13 cx[0] *57:8 0.000239697
14 cx[0] *58:10 8.57572e-06
15 cx[0] *90:50 0
16 an[7] cx[0] 0
*RES
1 *453:HI cx[0] 34.2861 
*END

*D_NET *13 0.00115177
*CONN
*P cx[1] O
*I *486:X O *D sky130_fd_sc_hd__buf_2
*CAP
1 cx[1] 0.00046405
2 *486:X 0.00046405
3 cx[1] cx[2] 0
4 cx[1] *484:A 0.000113175
5 cx[1] *486:A 0.000110492
6 cx[0] cx[1] 0
*RES
1 *486:X cx[1] 21.0559 
*END

*D_NET *14 0.000693886
*CONN
*P cx[2] O
*I *473:X O *D sky130_fd_sc_hd__buf_2
*CAP
1 cx[2] 0.000320434
2 *473:X 0.000320434
3 cx[2] cx[3] 0
4 cx[2] *428:D 0
5 cx[2] *473:A 2.00754e-05
6 cx[2] *486:A 3.29421e-05
7 cx[1] cx[2] 0
*RES
1 *473:X cx[2] 18.9462 
*END

*D_NET *15 0.00130238
*CONN
*P cx[3] O
*I *474:X O *D sky130_fd_sc_hd__buf_2
*CAP
1 cx[3] 0.000485325
2 *474:X 0.000485325
3 cx[3] cx[4] 0
4 cx[3] *474:A 8.64916e-05
5 cx[3] *475:A 8.00806e-05
6 cx[3] *477:A 0.000165152
7 cx[2] cx[3] 0
*RES
1 *474:X cx[3] 23.1962 
*END

*D_NET *16 0.00115653
*CONN
*P cx[4] O
*I *475:X O *D sky130_fd_sc_hd__buf_2
*CAP
1 cx[4] 0.000450385
2 *475:X 0.000450385
3 cx[4] cx[5] 0
4 cx[4] *474:A 0.000192103
5 cx[4] *475:A 6.36531e-05
6 cx[3] cx[4] 0
*RES
1 *475:X cx[4] 22.7121 
*END

*D_NET *17 0.00284994
*CONN
*P cx[5] O
*I *476:X O *D sky130_fd_sc_hd__buf_2
*CAP
1 cx[5] 0.00133485
2 *476:X 0.00133485
3 cx[5] cx[6] 0
4 cx[5] *432:CLK 7.50473e-05
5 cx[5] *475:A 3.83417e-05
6 cx[5] *477:A 0
7 cx[5] *478:A 6.68434e-05
8 cx[4] cx[5] 0
*RES
1 *476:X cx[5] 31.1433 
*END

*D_NET *18 0.00220606
*CONN
*P cx[6] O
*I *477:X O *D sky130_fd_sc_hd__buf_2
*CAP
1 cx[6] 0.00110303
2 *477:X 0.00110303
3 cx[6] cx[7] 0
4 cx[5] cx[6] 0
*RES
1 *477:X cx[6] 22.4666 
*END

*D_NET *19 0.00212175
*CONN
*P cx[7] O
*I *478:X O *D sky130_fd_sc_hd__clkbuf_4
*CAP
1 cx[7] 0.00106087
2 *478:X 0.00106087
3 cx[6] cx[7] 0
*RES
1 *478:X cx[7] 25.6924 
*END

*D_NET *21 0.00499448
*CONN
*I *373:C I *D sky130_fd_sc_hd__and3_1
*I *381:B I *D sky130_fd_sc_hd__and3_1
*I *366:B I *D sky130_fd_sc_hd__nand2_1
*I *433:Q O *D sky130_fd_sc_hd__dfxtp_1
*CAP
1 *373:C 0.000246266
2 *381:B 0.000432384
3 *366:B 0.000436817
4 *433:Q 0
5 *21:10 0.000941594
6 *21:6 0.000318659
7 *366:B *363:A 0.000191976
8 *366:B *363:B 0.000104536
9 *366:B *366:A 6.11433e-05
10 *366:B *368:A 0.000328648
11 *366:B *373:A 7.65336e-06
12 *366:B *460:A 3.06878e-06
13 *373:C *373:A 8.20097e-05
14 *373:C *374:A 3.45806e-06
15 *373:C *375:C1 0.000140088
16 *373:C *452:A 0
17 *373:C *37:16 4.48383e-05
18 *373:C *59:12 6.05161e-06
19 *381:B *363:B 0.000186817
20 *381:B *367:A2 0.000434115
21 *381:B *381:C 9.86486e-06
22 *381:B *383:A0 0.000302793
23 *381:B *460:A 5.89471e-05
24 *381:B *74:20 0.000190274
25 *21:10 *37:16 9.9129e-05
26 cx[0] *366:B 0.000363347
*RES
1 *433:Q *21:6 13.8 
2 *21:6 *21:10 5.83929 
3 *21:10 *366:B 28.1929 
4 *21:10 *381:B 19.3179 
5 *21:6 *373:C 26.7286 
*END

*D_NET *22 0.00377381
*CONN
*I *460:A I *D sky130_fd_sc_hd__dlygate4sd3_1
*I *373:B I *D sky130_fd_sc_hd__and3_1
*I *385:A1 I *D sky130_fd_sc_hd__o21bai_1
*I *377:A I *D sky130_fd_sc_hd__nor3_1
*I *434:Q O *D sky130_fd_sc_hd__dfxtp_1
*CAP
1 *460:A 0.00044651
2 *373:B 0.0002654
3 *385:A1 0
4 *377:A 6.61223e-05
5 *434:Q 4.17971e-05
6 *22:23 0.000294354
7 *22:10 0.000332557
8 *22:6 0.000725788
9 *373:B *385:A2 1.51571e-05
10 *373:B *387:A0 9.15842e-06
11 *373:B *37:27 3.4846e-06
12 *373:B *37:40 0.000152439
13 *373:B *56:44 2.77603e-05
14 *373:B *66:12 0.000139287
15 *377:A *385:A2 1.83136e-05
16 *460:A *363:B 0.000342463
17 *460:A *367:A2 0.000137639
18 *460:A *367:B1 0.000307951
19 *460:A *37:16 8.98814e-05
20 *460:A *56:10 1.83136e-05
21 *22:6 *56:10 1.84776e-05
22 *22:10 *363:A 1.85103e-05
23 *22:10 *37:27 3.39905e-05
24 *22:10 *56:10 9.95963e-05
25 *22:10 *56:44 6.13903e-05
26 *22:23 *37:27 1.85103e-05
27 *22:23 *56:44 2.69483e-05
28 *366:B *460:A 3.06878e-06
29 *381:B *460:A 5.89471e-05
*RES
1 *434:Q *22:6 9.83571 
2 *22:6 *22:10 9.48214 
3 *22:10 *377:A 14.7643 
4 *22:10 *22:23 0.732143 
5 *22:23 *385:A1 13.8 
6 *22:23 *373:B 17.8357 
7 *22:6 *460:A 18.4964 
*END

*D_NET *23 0.00558186
*CONN
*I *389:A I *D sky130_fd_sc_hd__or3_1
*I *394:A I *D sky130_fd_sc_hd__inv_2
*I *390:A1 I *D sky130_fd_sc_hd__a21oi_1
*I *368:B I *D sky130_fd_sc_hd__nand2_1
*I *435:Q O *D sky130_fd_sc_hd__dfxtp_1
*CAP
1 *389:A 0.000510067
2 *394:A 0.000254182
3 *390:A1 0
4 *368:B 0.000217345
5 *435:Q 0.000458118
6 *23:33 0.000436378
7 *23:12 0.000518766
8 *23:10 0.00108741
9 *368:B *368:A 5.52302e-05
10 *368:B *387:S 6.5975e-05
11 *368:B *400:B 0.000188413
12 *368:B *37:63 1.18358e-05
13 *368:B *59:41 8.97937e-05
14 *368:B *73:10 2.16394e-05
15 *389:A *389:B 2.11419e-05
16 *389:A *398:B1 0.000126408
17 *389:A *399:B1_N 1.94945e-05
18 *389:A *477:A 1.61421e-05
19 *394:A *398:A1 9.94545e-05
20 *394:A *398:B2 1.21258e-05
21 *394:A *427:D 1.3701e-05
22 *394:A *60:67 0.00016729
23 *23:10 *395:A 0.000101195
24 *23:10 *395:B 3.90513e-05
25 *23:10 *435:CLK 3.69047e-06
26 *23:10 *435:D 0.000141897
27 *23:10 *436:CLK 1.92905e-05
28 *23:10 *39:21 0.000156268
29 *23:10 *56:68 0.000123794
30 *23:12 *398:A1 2.41224e-05
31 *23:12 *39:10 0.000149421
32 *23:12 *39:21 1.10632e-05
33 *23:12 *56:59 0.000213869
34 *23:12 *56:68 2.16833e-05
35 *23:12 *59:41 5.41794e-05
36 *23:33 *386:C 1.24368e-05
37 *23:33 *398:A1 9.91033e-05
38 *23:33 *59:41 1.98839e-05
*RES
1 *435:Q *23:10 21.4518 
2 *23:10 *23:12 3.61607 
3 *23:12 *368:B 18.4071 
4 *23:12 *23:33 6.67857 
5 *23:33 *390:A1 9.3 
6 *23:33 *394:A 13.0321 
7 *23:10 *389:A 21.8086 
*END

*D_NET *24 0.00705158
*CONN
*I *381:C I *D sky130_fd_sc_hd__and3_1
*I *398:B2 I *D sky130_fd_sc_hd__o22a_1
*I *461:A I *D sky130_fd_sc_hd__dlygate4sd3_1
*I *436:Q O *D sky130_fd_sc_hd__dfxtp_1
*CAP
1 *381:C 0.000458727
2 *398:B2 0.000314988
3 *461:A 0
4 *436:Q 0.000854815
5 *24:18 0.0003493
6 *24:16 0.00134785
7 *381:C *367:A2 2.59355e-05
8 *381:C *376:A1 0
9 *381:C *379:A 0.000194338
10 *381:C *383:S 0.000146254
11 *381:C *40:26 5.21726e-05
12 *381:C *55:91 5.49995e-05
13 *381:C *55:97 0.000235564
14 *381:C *55:123 0.000208556
15 *381:C *60:24 0.00012401
16 *381:C *74:20 0.000236726
17 *398:B2 *389:C 1.36772e-05
18 *398:B2 *390:A2 9.83388e-05
19 *398:B2 *392:A2 0.000116033
20 *398:B2 *393:A2 0.000351785
21 *398:B2 *398:A1 6.03809e-05
22 *398:B2 *398:B1 5.21079e-05
23 *398:B2 *401:B 7.59269e-05
24 *398:B2 *427:D 7.17136e-05
25 *398:B2 *60:67 6.42095e-05
26 *24:16 *371:A 2.56409e-05
27 *24:16 *376:A1 0.000198698
28 *24:16 *380:A2 1.39726e-05
29 *24:16 *392:A2 0.000228855
30 *24:16 *392:B1 0.000117893
31 *24:16 *397:A1 2.86989e-05
32 *24:16 *401:A 2.59355e-05
33 *24:16 *402:A2 3.72659e-05
34 *24:16 *427:D 0.000130419
35 *24:16 *431:D 0.000411886
36 *24:16 *432:D 9.25014e-06
37 *24:16 *39:36 7.57312e-05
38 *24:16 *40:20 6.47823e-05
39 *24:16 *60:24 1.31992e-05
40 *24:16 *60:35 5.01876e-06
41 *24:16 *96:113 0
42 *24:16 *96:122 0
43 *24:18 *392:A2 3.97677e-05
44 *24:18 *427:D 9.41642e-05
45 *381:B *381:C 9.86486e-06
46 *394:A *398:B2 1.21258e-05
*RES
1 *436:Q *24:16 33.1929 
2 *24:16 *24:18 0.946429 
3 *24:18 *461:A 9.3 
4 *24:18 *398:B2 27.0009 
5 *24:16 *381:C 30.8893 
*END

*D_NET *25 0.00550957
*CONN
*I *462:A I *D sky130_fd_sc_hd__dlygate4sd3_1
*I *463:A I *D sky130_fd_sc_hd__dlygate4sd3_1
*I *456:A I *D sky130_fd_sc_hd__dlygate4sd3_1
*I *408:B I *D sky130_fd_sc_hd__and3_1
*I *365:A2 I *D sky130_fd_sc_hd__o31ai_2
*I *437:Q O *D sky130_fd_sc_hd__dfxtp_1
*CAP
1 *462:A 0.000227437
2 *463:A 0.000102594
3 *456:A 0
4 *408:B 0.00046493
5 *365:A2 7.56974e-05
6 *437:Q 0
7 *25:44 0.000153188
8 *25:14 0.00101442
9 *25:10 0.00070339
10 *25:4 0.000406441
11 *365:A2 *365:A1 3.4846e-06
12 *365:A2 *410:B 2.06112e-05
13 *365:A2 *419:B 0
14 *365:A2 *26:54 0.000111922
15 *365:A2 *90:50 2.89317e-05
16 *408:B *410:B 0.000266849
17 *408:B *413:A 3.98517e-05
18 *408:B *26:54 5.59369e-05
19 *408:B *28:18 2.61189e-05
20 *408:B *55:10 8.5356e-05
21 *408:B *57:8 3.84781e-05
22 *462:A *441:D 5.52302e-05
23 *462:A *92:16 7.21986e-05
24 *463:A *417:A2 0.000388038
25 *463:A *125:28 0.000371755
26 *25:10 *441:D 6.89553e-05
27 *25:10 *92:16 8.6608e-06
28 *25:10 *95:77 0
29 *25:14 *365:B1 0
30 *25:14 *409:A2 0
31 *25:14 *410:B 0.000151255
32 *25:14 *440:CLK 0
33 *25:14 *441:D 5.05625e-05
34 *25:14 *26:54 4.22135e-06
35 *25:14 *27:12 0.000141638
36 *25:14 *95:77 0
37 *25:44 *417:A2 0.000227539
38 *25:44 *471:A 8.86512e-05
39 *25:44 *125:28 5.52302e-05
*RES
1 *437:Q *25:4 9.3 
2 *25:4 *25:10 7.39286 
3 *25:10 *25:14 8.09821 
4 *25:14 *365:A2 21.0879 
5 *25:14 *408:B 21.4518 
6 *25:10 *25:44 6.67857 
7 *25:44 *456:A 9.3 
8 *25:44 *463:A 13.1214 
9 *25:4 *462:A 13.1571 
*END

*D_NET *26 0.0104235
*CONN
*I *420:A1 I *D sky130_fd_sc_hd__o32a_1
*I *403:A I *D sky130_fd_sc_hd__inv_2
*I *408:A I *D sky130_fd_sc_hd__and3_1
*I *409:A1 I *D sky130_fd_sc_hd__a21oi_1
*I *365:A1 I *D sky130_fd_sc_hd__o31ai_2
*I *406:A I *D sky130_fd_sc_hd__nand2_1
*I *438:Q O *D sky130_fd_sc_hd__dfxtp_1
*CAP
1 *420:A1 0.000544263
2 *403:A 2.22847e-05
3 *408:A 0.000131089
4 *409:A1 0
5 *365:A1 3.36256e-05
6 *406:A 1.55603e-05
7 *438:Q 0
8 *26:54 0.00067218
9 *26:33 0.00150332
10 *26:18 0.0016837
11 *26:12 0.00100549
12 *26:4 0.000787927
13 *365:A1 *410:B 0
14 *365:A1 *419:B 1.035e-05
15 *406:A *406:B 5.52302e-05
16 *406:A *87:6 1.92905e-05
17 *408:A *413:A 2.59355e-05
18 *408:A *413:B 1.71329e-05
19 *408:A *55:10 2.42516e-05
20 *420:A1 *415:A2 4.6025e-06
21 *420:A1 *418:A1 0.000219489
22 *420:A1 *418:B1_N 0
23 *420:A1 *420:A2 5.52238e-05
24 *420:A1 *420:B2 0.000104786
25 *420:A1 *445:D 0.000140243
26 *420:A1 *466:A 3.11088e-05
27 *420:A1 *90:54 4.47218e-05
28 *420:A1 *90:56 0.000161408
29 *420:A1 *95:34 4.19624e-06
30 *420:A1 *97:6 0.000354078
31 *420:A1 *122:6 4.43256e-05
32 *420:A1 *125:28 4.84159e-05
33 *26:12 *418:A2 0.000148308
34 *26:12 *472:A 0.000224882
35 *26:12 *479:A 4.80961e-05
36 *26:12 *85:10 3.13687e-05
37 *26:12 *107:8 5.62995e-05
38 *26:18 *407:B 0.000189195
39 *26:18 *421:A1 0.000173097
40 *26:18 *85:10 3.08664e-05
41 *26:33 *407:B 4.35131e-05
42 *26:33 *421:A1 0.000337089
43 *26:33 *86:10 7.30305e-05
44 *26:33 *90:23 0.000237754
45 *26:33 *90:50 3.62697e-05
46 *26:33 *93:10 0.000213232
47 *26:54 *365:B1 7.58484e-06
48 *26:54 *409:B1 5.52238e-05
49 *26:54 *410:B 1.21258e-05
50 *26:54 *27:12 4.33002e-05
51 *26:54 *55:10 3.36015e-05
52 *26:54 *57:8 0.00012401
53 *26:54 *90:50 2.32837e-05
54 an[1] *26:12 0.000272174
55 an[3] *420:A1 6.93627e-05
56 *365:A2 *365:A1 3.4846e-06
57 *365:A2 *26:54 0.000111922
58 *408:B *26:54 5.59369e-05
59 *25:14 *26:54 4.22135e-06
*RES
1 *438:Q *26:4 9.3 
2 *26:4 *26:12 16 
3 *26:12 *26:18 19.0893 
4 *26:18 *406:A 14.3357 
5 *26:18 *26:33 11.869 
6 *26:33 *365:A1 17.7904 
7 *26:33 *26:54 12.3275 
8 *26:54 *409:A1 9.3 
9 *26:54 *408:A 11.0857 
10 *26:12 *403:A 9.72857 
11 *26:4 *420:A1 31.1214 
*END

*D_NET *27 0.00451788
*CONN
*I *457:A I *D sky130_fd_sc_hd__dlygate4sd3_1
*I *413:B I *D sky130_fd_sc_hd__or2_1
*I *408:C I *D sky130_fd_sc_hd__and3_1
*I *365:A3 I *D sky130_fd_sc_hd__o31ai_2
*I *419:B I *D sky130_fd_sc_hd__nand2_1
*I *439:Q O *D sky130_fd_sc_hd__dfxtp_1
*CAP
1 *457:A 0
2 *413:B 6.4064e-05
3 *408:C 0
4 *365:A3 0
5 *419:B 0.000379303
6 *439:Q 0.000193133
7 *27:56 0.000127717
8 *27:48 0.000208611
9 *27:18 0.000402694
10 *27:12 0.000361483
11 *413:B *413:A 0.000134789
12 *413:B *423:A2 5.52302e-05
13 *419:B *410:B 0
14 *419:B *422:B 0.000177996
15 *419:B *440:CLK 0.00022149
16 *419:B *440:D 9.97552e-05
17 *419:B *28:8 0.00043943
18 *419:B *54:22 0.000356152
19 *27:12 *365:B1 0
20 *27:12 *93:35 4.37999e-05
21 *27:18 *422:B 5.69856e-05
22 *27:18 *54:22 1.31439e-05
23 *27:48 *365:B1 5.52238e-05
24 *27:48 *422:B 0.000200023
25 *27:48 *54:22 0.000411437
26 *27:56 *379:A 0.000150632
27 *27:56 *413:A 3.45806e-06
28 *27:56 *90:50 6.81083e-05
29 *27:56 *90:52 4.73656e-05
30 *27:56 *90:54 3.34366e-05
31 *365:A1 *419:B 1.035e-05
32 *365:A2 *419:B 0
33 *408:A *413:B 1.71329e-05
34 *25:14 *27:12 0.000141638
35 *26:54 *27:12 4.33002e-05
*RES
1 *439:Q *27:12 21.6036 
2 *27:12 *27:18 0.839286 
3 *27:18 *419:B 29.4607 
4 *27:18 *365:A3 9.3 
5 *27:12 *27:48 4.78571 
6 *27:48 *27:56 11.1429 
7 *27:56 *408:C 9.3 
8 *27:56 *413:B 11.0143 
9 *27:48 *457:A 9.3 
*END

*D_NET *28 0.00409393
*CONN
*I *362:A I *D sky130_fd_sc_hd__clkbuf_4
*I *373:A I *D sky130_fd_sc_hd__and3_1
*I *458:A I *D sky130_fd_sc_hd__dlygate4sd3_1
*I *440:Q O *D sky130_fd_sc_hd__dfxtp_1
*CAP
1 *362:A 3.80815e-05
2 *373:A 0.000346492
3 *458:A 1.99947e-05
4 *440:Q 0.000522668
5 *28:18 0.00064745
6 *28:8 0.000841713
7 *362:A *410:B 6.05161e-06
8 *373:A *368:A 0.000156812
9 *373:A *375:B1 0.00019286
10 *373:A *37:16 0.000127614
11 *373:A *57:8 0
12 *373:A *58:10 0.000124157
13 *373:A *59:12 5.33005e-05
14 *458:A *58:10 7.43578e-06
15 *28:8 *440:CLK 8.00482e-05
16 *28:8 *440:D 5.89794e-05
17 *28:18 *410:B 5.51132e-05
18 cx[0] *458:A 2.44318e-05
19 cx[0] *28:18 0.000226264
20 *366:B *373:A 7.65336e-06
21 *373:C *373:A 8.20097e-05
22 *408:B *28:18 2.61189e-05
23 *419:B *28:8 0.00043943
24 *450:A *373:A 9.25014e-06
25 *450:A *28:18 0
*RES
1 *440:Q *28:8 16.425 
2 *28:8 *28:18 14.4643 
3 *28:18 *458:A 9.83571 
4 *28:18 *373:A 26.3 
5 *28:8 *362:A 9.83571 
*END

*D_NET *29 0.000339168
*CONN
*I *455:A I *D sky130_fd_sc_hd__dlygate4sd3_1
*I *441:Q O *D sky130_fd_sc_hd__dfxtp_1
*CAP
1 *455:A 4.81583e-05
2 *441:Q 4.81583e-05
3 *455:A *404:B 0.00014183
4 *455:A *416:B1 1.56e-05
5 *455:A *441:D 8.54218e-05
*RES
1 *441:Q *455:A 20.3857 
*END

*D_NET *30 0.0014408
*CONN
*I *426:D I *D sky130_fd_sc_hd__dfxtp_1
*I *380:Y O *D sky130_fd_sc_hd__o21ai_1
*CAP
1 *426:D 0.000270863
2 *380:Y 0.000270863
3 *426:D *427:D 0.000392762
4 *426:D *68:16 0.000506314
*RES
1 *380:Y *426:D 35.4929 
*END

*D_NET *31 0.00211833
*CONN
*I *427:D I *D sky130_fd_sc_hd__dfxtp_1
*I *384:X O *D sky130_fd_sc_hd__clkbuf_1
*CAP
1 *427:D 0.000529318
2 *384:X 0.000529318
3 *427:D *370:B 9.41642e-05
4 *427:D *380:A2 2.97829e-05
5 *427:D *428:CLK 9.60939e-05
6 *427:D *428:D 0.000126053
7 *427:D *68:16 1.08359e-05
8 *394:A *427:D 1.3701e-05
9 *398:B2 *427:D 7.17136e-05
10 *426:D *427:D 0.000392762
11 *24:16 *427:D 0.000130419
12 *24:18 *427:D 9.41642e-05
*RES
1 *384:X *427:D 39.85 
*END

*D_NET *32 0.00116519
*CONN
*I *428:D I *D sky130_fd_sc_hd__dfxtp_1
*I *388:X O *D sky130_fd_sc_hd__clkbuf_1
*CAP
1 *428:D 0.000379254
2 *388:X 0.000379254
3 *428:D *484:A 0.000280628
4 cx[2] *428:D 0
5 *427:D *428:D 0.000126053
*RES
1 *388:X *428:D 36.8009 
*END

*D_NET *33 0.00138099
*CONN
*I *429:D I *D sky130_fd_sc_hd__dfxtp_1
*I *393:Y O *D sky130_fd_sc_hd__a21oi_1
*CAP
1 *429:D 0.000358161
2 *393:Y 0.000358161
3 *429:D *371:A 9.60939e-05
4 *429:D *393:B1 5.45756e-05
5 *429:D *397:A1 0.000118986
6 *429:D *397:B1 9.71197e-05
7 *429:D *402:A2 1.58163e-05
8 *429:D *431:D 0.000266479
9 *429:D *40:6 1.56e-05
*RES
1 *393:Y *429:D 34.8857 
*END

*D_NET *34 0.000369975
*CONN
*I *430:D I *D sky130_fd_sc_hd__dfxtp_1
*I *397:Y O *D sky130_fd_sc_hd__a21oi_1
*CAP
1 *430:D 5.06331e-05
2 *397:Y 5.06331e-05
3 *430:D *397:B1 2.87163e-05
4 *430:D *430:CLK 3.43475e-05
5 *430:D *476:A 0.000205644
*RES
1 *397:Y *430:D 20.5554 
*END

*D_NET *35 0.00199342
*CONN
*I *431:D I *D sky130_fd_sc_hd__dfxtp_1
*I *399:X O *D sky130_fd_sc_hd__o21ba_1
*CAP
1 *431:D 0.000382982
2 *399:X 0.000382982
3 *431:D *392:B1 5.01117e-05
4 *431:D *402:A2 7.48301e-06
5 *431:D *402:B1 0.000218685
6 *431:D *402:B2 2.14757e-05
7 *431:D *432:D 5.52302e-05
8 *431:D *96:113 0.000153054
9 *431:D *96:122 4.30452e-05
10 *429:D *431:D 0.000266479
11 *24:16 *431:D 0.000411886
*RES
1 *399:X *431:D 37.2473 
*END

*D_NET *36 0.000830807
*CONN
*I *432:D I *D sky130_fd_sc_hd__dfxtp_1
*I *402:X O *D sky130_fd_sc_hd__a22o_1
*CAP
1 *432:D 0.000234151
2 *402:X 0.000234151
3 *432:D *397:A1 3.47355e-05
4 *432:D *432:CLK 0.00015559
5 *432:D *476:A 0
6 *432:D *478:A 8.42801e-05
7 *432:D *40:68 0
8 *432:D *96:122 2.34204e-05
9 *431:D *432:D 5.52302e-05
10 *24:16 *432:D 9.25014e-06
*RES
1 *402:X *432:D 32.7116 
*END

*D_NET *37 0.00934471
*CONN
*I *386:B I *D sky130_fd_sc_hd__and3_1
*I *389:C I *D sky130_fd_sc_hd__or3_1
*I *372:A2 I *D sky130_fd_sc_hd__a21o_1
*I *399:A1 I *D sky130_fd_sc_hd__o21ba_1
*I *395:B I *D sky130_fd_sc_hd__and2_1
*I *385:B1_N I *D sky130_fd_sc_hd__o21bai_1
*I *377:B I *D sky130_fd_sc_hd__nor3_1
*I *433:D I *D sky130_fd_sc_hd__dfxtp_1
*I *367:Y O *D sky130_fd_sc_hd__o21ai_2
*CAP
1 *386:B 0
2 *389:C 0.00030041
3 *372:A2 0
4 *399:A1 0.000145839
5 *395:B 0.000192857
6 *385:B1_N 6.79225e-05
7 *377:B 0
8 *433:D 6.30074e-05
9 *367:Y 0.000710847
10 *37:81 0.000570039
11 *37:73 0.000770881
12 *37:63 0.000675306
13 *37:40 0.000617395
14 *37:27 0.00020676
15 *37:16 0.000867321
16 *389:C *398:A1 5.49544e-05
17 *389:C *398:A2 7.80313e-05
18 *389:C *398:B1 7.01574e-05
19 *389:C *399:B1_N 1.68106e-05
20 *389:C *61:10 0.000328437
21 *395:B *395:A 2.91861e-05
22 *395:B *398:A2 2.89016e-05
23 *395:B *436:D 5.52238e-05
24 *395:B *39:21 5.41794e-05
25 *399:A1 *389:B 0.00018233
26 *399:A1 *401:B 2.51981e-05
27 *433:D *375:C1 0.000228424
28 *433:D *96:20 7.66931e-05
29 *37:16 *367:B1 0.000434858
30 *37:16 *375:B1 0.000137561
31 *37:16 *375:C1 0.000265297
32 *37:16 *452:A 0
33 *37:16 *55:87 2.12647e-05
34 *37:16 *55:91 3.50746e-05
35 *37:16 *96:20 3.62933e-05
36 *37:27 *368:A 8.54803e-05
37 *37:40 *368:A 2.62951e-05
38 *37:40 *385:A2 0.000224426
39 *37:40 *387:A0 5.50052e-05
40 *37:63 *368:A 2.34548e-05
41 *37:63 *387:A0 2.42184e-05
42 *37:63 *387:S 9.23147e-05
43 *37:63 *56:44 0.000223287
44 *37:63 *56:59 3.63785e-05
45 *37:63 *73:10 7.70035e-05
46 *37:63 *96:44 5.09999e-05
47 *37:73 *398:A2 0.000132852
48 *37:73 *56:59 1.58163e-05
49 *37:73 *96:44 0
50 *37:81 *389:B 0.000135028
51 *37:81 *398:A2 1.85103e-05
52 *37:81 *435:D 1.98839e-05
53 *37:81 *56:59 9.11048e-06
54 *37:81 *56:68 0.000112731
55 *368:B *37:63 1.18358e-05
56 *373:A *37:16 0.000127614
57 *373:B *37:27 3.4846e-06
58 *373:B *37:40 0.000152439
59 *373:C *37:16 4.48383e-05
60 *398:B2 *389:C 1.36772e-05
61 *460:A *37:16 8.98814e-05
62 *21:10 *37:16 9.9129e-05
63 *22:10 *37:27 3.39905e-05