*SPEF "ieee 1481-1999"
*DESIGN "first_project"
*DATE "17:12:15 Saturday April 26, 2025"
*VENDOR "The OpenROAD Project"
*PROGRAM "OpenROAD"
*VERSION "b16bda7e82721d10566ff7e2b68f1ff0be9f9e38"
*DESIGN_FLOW "NAME_SCOPE LOCAL" "PIN_CAP NONE"
*DIVIDER /
*DELIMITER :
*BUS_DELIMITER []
*T_UNIT 1 NS
*C_UNIT 1 PF
*R_UNIT 1 OHM
*L_UNIT 1 HENRY

*NAME_MAP
*3 in[0]
*4 in[1]
*5 in[2]
*6 in[3]
*7 in[4]
*8 in[5]
*9 in[6]
*10 in[7]
*11 out[0]
*12 out[1]
*13 out[2]
*14 out[3]
*15 out[4]
*16 out[5]
*17 out[6]
*18 out[7]
*19 _00_
*20 _01_
*21 _02_
*22 _03_
*23 _04_
*24 _05_
*25 _06_
*26 _07_
*27 _08_
*28 net1
*29 net10
*30 net11
*31 net12
*32 net13
*33 net14
*34 net15
*35 net16
*36 net2
*37 net3
*38 net4
*39 net5
*40 net6
*41 net7
*42 net8
*43 net9
*44 FILLER_0_0_15
*45 FILLER_0_0_27
*46 FILLER_0_0_29
*47 FILLER_0_0_37
*48 FILLER_0_0_6
*49 FILLER_0_10_18
*50 FILLER_0_10_26
*51 FILLER_0_10_29
*52 FILLER_0_10_41
*53 FILLER_0_10_6
*54 FILLER_0_11_18
*55 FILLER_0_11_24
*56 FILLER_0_11_36
*57 FILLER_0_11_6
*58 FILLER_0_12_13
*59 FILLER_0_12_25
*60 FILLER_0_12_32
*61 FILLER_0_1_18
*62 FILLER_0_1_23
*63 FILLER_0_1_35
*64 FILLER_0_1_47
*65 FILLER_0_1_6
*66 FILLER_0_2_15
*67 FILLER_0_2_27
*68 FILLER_0_2_29
*69 FILLER_0_2_3
*70 FILLER_0_2_41
*71 FILLER_0_2_47
*72 FILLER_0_3_11
*73 FILLER_0_3_23
*74 FILLER_0_3_3
*75 FILLER_0_3_35
*76 FILLER_0_3_40
*77 FILLER_0_4_15
*78 FILLER_0_4_27
*79 FILLER_0_4_29
*80 FILLER_0_4_3
*81 FILLER_0_4_41
*82 FILLER_0_4_47
*83 FILLER_0_5_10
*84 FILLER_0_5_18
*85 FILLER_0_5_30
*86 FILLER_0_5_6
*87 FILLER_0_6_15
*88 FILLER_0_6_27
*89 FILLER_0_6_29
*90 FILLER_0_6_3
*91 FILLER_0_6_33
*92 FILLER_0_6_37
*93 FILLER_0_6_45
*94 FILLER_0_7_18
*95 FILLER_0_7_30
*96 FILLER_0_7_43
*97 FILLER_0_7_47
*98 FILLER_0_7_6
*99 FILLER_0_8_15
*100 FILLER_0_8_27
*101 FILLER_0_8_3
*102 FILLER_0_8_36
*103 FILLER_0_9_15
*104 FILLER_0_9_27
*105 FILLER_0_9_3
*106 FILLER_0_9_39
*107 FILLER_0_9_47
*108 FILLER_0_9_9
*109 PHY_EDGE_ROW_0_Left_13
*110 PHY_EDGE_ROW_0_Right_0
*111 PHY_EDGE_ROW_10_Left_23
*112 PHY_EDGE_ROW_10_Right_10
*113 PHY_EDGE_ROW_11_Left_24
*114 PHY_EDGE_ROW_11_Right_11
*115 PHY_EDGE_ROW_12_Left_25
*116 PHY_EDGE_ROW_12_Right_12
*117 PHY_EDGE_ROW_1_Left_14
*118 PHY_EDGE_ROW_1_Right_1
*119 PHY_EDGE_ROW_2_Left_15
*120 PHY_EDGE_ROW_2_Right_2
*121 PHY_EDGE_ROW_3_Left_16
*122 PHY_EDGE_ROW_3_Right_3
*123 PHY_EDGE_ROW_4_Left_17
*124 PHY_EDGE_ROW_4_Right_4
*125 PHY_EDGE_ROW_5_Left_18
*126 PHY_EDGE_ROW_5_Right_5
*127 PHY_EDGE_ROW_6_Left_19
*128 PHY_EDGE_ROW_6_Right_6
*129 PHY_EDGE_ROW_7_Left_20
*130 PHY_EDGE_ROW_7_Right_7
*131 PHY_EDGE_ROW_8_Left_21
*132 PHY_EDGE_ROW_8_Right_8
*133 PHY_EDGE_ROW_9_Left_22
*134 PHY_EDGE_ROW_9_Right_9
*135 TAP_TAPCELL_ROW_0_26
*136 TAP_TAPCELL_ROW_10_31
*137 TAP_TAPCELL_ROW_12_32
*138 TAP_TAPCELL_ROW_2_27
*139 TAP_TAPCELL_ROW_4_28
*140 TAP_TAPCELL_ROW_6_29
*141 TAP_TAPCELL_ROW_8_30
*142 _09_
*143 _10_
*144 _11_
*145 _12_
*146 _13_
*147 _14_
*148 _15_
*149 _16_
*150 _17_
*151 _18_
*152 _19_
*153 _20_
*154 _21_
*155 _22_
*156 _23_
*157 _24_
*158 _25_
*159 input1
*160 input2
*161 input3
*162 input4
*163 input5
*164 input6
*165 input7
*166 input8
*167 output10
*168 output11
*169 output12
*170 output13
*171 output14
*172 output15
*173 output16
*174 output9

*PORTS
in[0] I
in[1] I
in[2] I
in[3] I
in[4] I
in[5] I
in[6] I
in[7] I
out[0] O
out[1] O
out[2] O
out[3] O
out[4] O
out[5] O
out[6] O
out[7] O

*D_NET *3 0.00105377
*CONN
*P in[0] I
*I *159:A I *D sky130_fd_sc_hd__dlymetal6s2s_1
*CAP
1 in[0] 0.000526885
2 *159:A 0.000526885
3 *159:A *160:A 0
*RES
1 in[0] *159:A 24.1943 
*END

*D_NET *4 0.000770247
*CONN
*P in[1] I
*I *160:A I *D sky130_fd_sc_hd__buf_1
*CAP
1 in[1] 0.000382098
2 *160:A 0.000382098
3 *160:A *161:A 0
4 *160:A *28:12 0
5 *160:A *36:10 6.05161e-06
6 *159:A *160:A 0
*RES
1 in[1] *160:A 22.3017 
*END

*D_NET *5 0.000592716
*CONN
*P in[2] I
*I *161:A I *D sky130_fd_sc_hd__buf_1
*CAP
1 in[2] 0.000296358
2 *161:A 0.000296358
3 *161:A *162:A 0
4 *160:A *161:A 0
*RES
1 in[2] *161:A 20.4803 
*END

*D_NET *6 0.000625078
*CONN
*P in[3] I
*I *162:A I *D sky130_fd_sc_hd__clkbuf_1
*CAP
1 in[3] 0.000312539
2 *162:A 0.000312539
3 *162:A *163:A 0
4 *161:A *162:A 0
*RES
1 in[3] *162:A 20.7838 
*END

*D_NET *7 0.00062186
*CONN
*P in[4] I
*I *163:A I *D sky130_fd_sc_hd__buf_1
*CAP
1 in[4] 0.00031093
2 *163:A 0.00031093
3 *163:A *154:A1 0
4 *163:A *164:A 0
5 *162:A *163:A 0
*RES
1 in[4] *163:A 20.7838 
*END

*D_NET *8 0.00101149
*CONN
*P in[5] I
*I *164:A I *D sky130_fd_sc_hd__buf_1
*CAP
1 in[5] 0.00044903
2 *164:A 0.00044903
3 *164:A *154:A1 5.71472e-05
4 *164:A *154:A2 5.62788e-05
5 *164:A *155:B 0
6 *164:A *165:A 0
7 *164:A *41:14 0
8 *163:A *164:A 0
*RES
1 in[5] *164:A 24.3697 
*END

*D_NET *9 0.000574588
*CONN
*P in[6] I
*I *165:A I *D sky130_fd_sc_hd__clkbuf_1
*CAP
1 in[6] 0.000287294
2 *165:A 0.000287294
3 *165:A *166:A 0
4 *164:A *165:A 0
*RES
1 in[6] *165:A 20.4803 
*END

*D_NET *10 0.00140437
*CONN
*P in[7] I
*I *166:A I *D sky130_fd_sc_hd__buf_1
*CAP
1 in[7] 0.000702185
2 *166:A 0.000702185
3 *166:A *41:14 0
4 *165:A *166:A 0
*RES
1 in[7] *166:A 27.5336 
*END

*D_NET *11 0.00116601
*CONN
*P out[0] O
*I *174:X O *D sky130_fd_sc_hd__buf_2
*CAP
1 out[0] 0.000583005
2 *174:X 0.000583005
3 out[0] out[1] 0
*RES
1 *174:X out[0] 23.8754 
*END

*D_NET *12 0.000438356
*CONN
*P out[1] O
*I *167:X O *D sky130_fd_sc_hd__buf_2
*CAP
1 out[1] 0.000219178
2 *167:X 0.000219178
3 out[1] out[2] 0
4 out[0] out[1] 0
*RES
1 *167:X out[1] 18.1229 
*END

*D_NET *13 0.000437128
*CONN
*P out[2] O
*I *168:X O *D sky130_fd_sc_hd__buf_2
*CAP
1 out[2] 0.000218564
2 *168:X 0.000218564
3 out[2] out[3] 0
4 out[2] *167:A 0
5 out[1] out[2] 0
*RES
1 *168:X out[2] 18.1229 
*END

*D_NET *14 0.000580396
*CONN
*P out[3] O
*I *169:X O *D sky130_fd_sc_hd__buf_2
*CAP
1 out[3] 0.000290198
2 *169:X 0.000290198
3 out[3] out[4] 0
4 out[3] *43:12 0
5 out[2] out[3] 0
*RES
1 *169:X out[3] 19.3371 
*END

*D_NET *15 0.000444692
*CONN
*P out[4] O
*I *170:X O *D sky130_fd_sc_hd__buf_2
*CAP
1 out[4] 0.000216026
2 *170:X 0.000216026
3 out[4] out[5] 0
4 out[4] *149:B 8.50795e-06
5 out[4] *151:B 4.1331e-06
6 out[3] out[4] 0
*RES
1 *170:X out[4] 18.1229 
*END

*D_NET *16 0.000599297
*CONN
*P out[5] O
*I *171:X O *D sky130_fd_sc_hd__buf_2
*CAP
1 out[5] 0.000268276
2 *171:X 0.000268276
3 out[5] out[6] 0
4 out[5] *171:A 6.27457e-05
5 out[4] out[5] 0
*RES
1 *171:X out[5] 19.3371 
*END

*D_NET *17 0.000825999
*CONN
*P out[6] O
*I *172:X O *D sky130_fd_sc_hd__buf_2
*CAP
1 out[6] 0.000412999
2 *172:X 0.000412999
3 out[6] out[7] 0
4 out[5] out[6] 0
*RES
1 *172:X out[6] 18.5553 
*END

*D_NET *18 0.00103775
*CONN
*P out[7] O
*I *173:X O *D sky130_fd_sc_hd__clkbuf_4
*CAP
1 out[7] 0.000518877
2 *173:X 0.000518877
3 out[6] out[7] 0
*RES
1 *173:X out[7] 24.4258 
*END

*D_NET *19 0.00643607
*CONN
*I *148:D I *D sky130_fd_sc_hd__or4_1
*I *143:B I *D sky130_fd_sc_hd__nor2_1
*I *147:A3 I *D sky130_fd_sc_hd__o31a_1
*I *157:B1_N I *D sky130_fd_sc_hd__a21boi_1
*I *144:B I *D sky130_fd_sc_hd__and2_1
*I *142:X O *D sky130_fd_sc_hd__or4_2
*CAP
1 *148:D 0.000340459
2 *143:B 0.000411491
3 *147:A3 0
4 *157:B1_N 5.32195e-05
5 *144:B 0.000193321
6 *142:X 0.000403477
7 *19:51 0.000921779
8 *19:42 0.000169828
9 *19:12 0.000361794
10 *19:10 0.00051873
11 *143:B *143:A 0.00076945
12 *143:B *149:A_N 0
13 *143:B *157:A2 1.08359e-05
14 *144:B *145:B 0.000140088
15 *144:B *157:A1 0.000103937
16 *144:B *157:A2 0.000135002
17 *144:B *41:14 5.80858e-06
18 *148:D *148:A 0.000683317
19 *157:B1_N *157:A2 5.33005e-05
20 *157:B1_N *40:23 4.22986e-05
21 *19:10 *142:D 5.65955e-05
22 *19:10 *152:A 1.10868e-05
23 *19:10 *154:B1 0
24 *19:10 *24:14 5.49489e-05
25 *19:10 *28:31 3.09506e-05
26 *19:10 *28:35 0.000222153
27 *19:12 *28:35 2.30245e-05
28 *19:12 *40:23 0.000134558
29 *19:51 *148:A 5.33005e-05
30 *19:51 *148:C 0.000216397
31 *19:51 *39:23 4.971e-05
32 *19:51 *39:30 0.000265212
*RES
1 *142:X *19:10 21.6571 
2 *19:10 *19:12 2.40179 
3 *19:12 *144:B 18.0589 
4 *19:12 *157:B1_N 14.9161 
5 *19:10 *19:42 4.5 
6 *19:42 *147:A3 9.3 
7 *19:42 *19:51 4.25 
8 *19:51 *143:B 28.4429 
9 *19:51 *148:D 15.9964 
*END

*D_NET *20 0.00491334
*CONN
*I *145:A I *D sky130_fd_sc_hd__nor2_1
*I *146:B I *D sky130_fd_sc_hd__xnor2_1
*I *143:Y O *D sky130_fd_sc_hd__nor2_1
*CAP
1 *145:A 0.000571453
2 *146:B 0.000445151
3 *143:Y 0.000317112
4 *20:8 0.00133372
5 *145:A *149:A_N 0
6 *145:A *24:14 0.000888361
7 *145:A *34:16 6.1684e-05
8 *146:B *146:A 0.000141729
9 *146:B *171:A 0.000840247
10 *146:B *34:16 1.43417e-05
11 *20:8 *149:B 5.52238e-05
12 *20:8 *42:16 0.000244318
*RES
1 *143:Y *20:8 18.4429 
2 *20:8 *146:B 24.6036 
3 *20:8 *145:A 27.2107 
*END

*D_NET *21 0.003705
*CONN
*I *145:B I *D sky130_fd_sc_hd__nor2_1
*I *144:X O *D sky130_fd_sc_hd__and2_1
*CAP
1 *145:B 0.000947205
2 *144:X 0.000947205
3 *145:B *157:A2 1.64621e-05
4 *145:B *31:14 0.00134372
5 *145:B *34:16 0.000310314
6 *144:B *145:B 0.000140088
*RES
1 *144:X *145:B 43.2964 
*END

*D_NET *22 0.0022321
*CONN
*I *149:A_N I *D sky130_fd_sc_hd__and2b_1
*I *147:X O *D sky130_fd_sc_hd__o31a_1
*CAP
1 *149:A_N 0.000852447
2 *147:X 0.000852447
3 *149:A_N *148:B 0.000527203
4 *143:B *149:A_N 0
5 *145:A *149:A_N 0
*RES
1 *147:X *149:A_N 41.2786 
*END

*D_NET *23 0.00365629
*CONN
*I *151:B I *D sky130_fd_sc_hd__xor2_1
*I *149:B I *D sky130_fd_sc_hd__and2b_1
*I *148:X O *D sky130_fd_sc_hd__or4_1
*CAP
1 *151:B 0.000303991
2 *149:B 0.000494014
3 *148:X 0
4 *23:6 0.000798005
5 *149:B *171:A 0.000446929
6 *149:B *173:A 0.000760846
7 *149:B *42:16 0.000270326
8 *151:B *170:A 0.000128146
9 *151:B *173:A 0.000386169
10 *151:B *43:12 0
11 out[4] *149:B 8.50795e-06
12 out[4] *151:B 4.1331e-06
13 *20:8 *149:B 5.52238e-05
*RES
1 *148:X *23:6 13.8 
2 *23:6 *149:B 27.9786 
3 *23:6 *151:B 21.1571 
*END

*D_NET *24 0.00506561
*CONN
*I *150:A I *D sky130_fd_sc_hd__clkbuf_1
*I *149:X O *D sky130_fd_sc_hd__and2b_1
*CAP
1 *150:A 0
2 *149:X 0.000644937
3 *24:14 0.000644937
4 *24:14 *142:A 0
5 *24:14 *152:A 0.000725165
6 *24:14 *31:14 6.8646e-06
7 *24:14 *34:16 0.0021004
8 *145:A *24:14 0.000888361
9 *19:10 *24:14 5.49489e-05
*RES
1 *149:X *24:14 43.8 
2 *24:14 *150:A 9.3 
*END

*D_NET *25 0.00379232
*CONN
*I *155:A I *D sky130_fd_sc_hd__and2_1
*I *157:A2 I *D sky130_fd_sc_hd__a21boi_1
*I *153:X O *D sky130_fd_sc_hd__or3_1
*CAP
1 *155:A 0.000207782
2 *157:A2 0.000861317
3 *153:X 0.00028078
4 *25:10 0.00134988
5 *155:A *155:B 9.99853e-05
6 *155:A *156:A 9.51689e-05
7 *157:A2 *143:A 0.000188967
8 *157:A2 *148:C 1.8944e-05
9 *157:A2 *152:B 0
10 *157:A2 *157:A1 3.08664e-05
11 *157:A2 *28:16 0
12 *157:A2 *28:31 0
13 *157:A2 *28:35 0
14 *157:A2 *31:14 0.000351107
15 *25:10 *153:A 3.69697e-05
16 *25:10 *153:B 5.49489e-05
17 *25:10 *156:A 0
18 *25:10 *28:16 0
19 *143:B *157:A2 1.08359e-05
20 *144:B *157:A2 0.000135002
21 *145:B *157:A2 1.64621e-05
22 *157:B1_N *157:A2 5.33005e-05
*RES
1 *153:X *25:10 18.7107 
2 *25:10 *157:A2 30.8357 
3 *25:10 *155:A 18.0321 
*END

*D_NET *26 0.00328282
*CONN
*I *155:B I *D sky130_fd_sc_hd__and2_1
*I *154:Y O *D sky130_fd_sc_hd__o21ai_1
*CAP
1 *155:B 0.000514069
2 *154:Y 0.000514069
3 *155:B *142:A 0.00027438
4 *155:B *154:A1 5.16583e-05
5 *155:B *154:B1 0.00103702
6 *155:B *157:A1 0.000561696
7 *155:B *36:10 7.30398e-05
8 *155:B *37:10 0.000142797
9 *155:B *41:14 1.41029e-05
10 *155:A *155:B 9.99853e-05
11 *164:A *155:B 0
*RES
1 *154:Y *155:B 45.4929 
*END

*D_NET *27 0.0018635
*CONN
*I *156:A I *D sky130_fd_sc_hd__clkbuf_1
*I *155:X O *D sky130_fd_sc_hd__and2_1
*CAP
1 *156:A 0.000884166
2 *155:X 0.000884166
3 *156:A *153:A 0
4 *156:A *43:12 0
5 *155:A *156:A 9.51689e-05
6 *25:10 *156:A 0
*RES
1 *155:X *156:A 40.3857 
*END

*D_NET *28 0.0084858
*CONN
*I *153:C I *D sky130_fd_sc_hd__or3_1
*I *152:B I *D sky130_fd_sc_hd__xor2_1
*I *158:A I *D sky130_fd_sc_hd__clkbuf_1
*I *154:A2 I *D sky130_fd_sc_hd__o21ai_1
*I *142:D I *D sky130_fd_sc_hd__or4_2
*I *159:X O *D sky130_fd_sc_hd__dlymetal6s2s_1
*CAP
1 *153:C 0.000162844
2 *152:B 0.000683994
3 *158:A 0.000676917
4 *154:A2 0.000364167
5 *142:D 0.00029603
6 *159:X 0.00028676
7 *28:35 0.00155992
8 *28:31 0.00128482
9 *28:16 0.000836023
10 *28:12 0.000907602
11 *142:D *142:A 0.000136682
12 *142:D *152:A 6.8529e-05
13 *152:B *43:12 0
14 *153:C *153:B 0.00014195
15 *154:A2 *40:8 1.64131e-05
16 *28:12 *153:B 0.000219753
17 *28:16 *153:A 0
18 *28:16 *154:B1 0
19 *28:16 *37:10 0
20 *28:31 *154:B1 0
21 *28:35 *143:A 0
22 *28:35 *146:A 0.000131297
23 *28:35 *148:C 3.69697e-05
24 *28:35 *40:23 0.000286128
25 *157:A2 *152:B 0
26 *157:A2 *28:16 0
27 *157:A2 *28:31 0
28 *157:A2 *28:35 0
29 *160:A *28:12 0
30 *164:A *154:A2 5.62788e-05
31 *19:10 *142:D 5.65955e-05
32 *19:10 *28:31 3.09506e-05
33 *19:10 *28:35 0.000222153
34 *19:12 *28:35 2.30245e-05
35 *25:10 *28:16 0
*RES
1 *159:X *28:12 24.3714 
2 *28:12 *28:16 12.3661 
3 *28:16 *142:D 18.4339 
4 *28:16 *28:31 1.49107 
5 *28:31 *28:35 15.8571 
6 *28:35 *154:A2 13.5321 
7 *28:35 *158:A 19.6214 
8 *28:31 *152:B 31.0321 
9 *28:12 *153:C 12.7107 
*END

*D_NET *29 0.00193871
*CONN
*I *167:A I *D sky130_fd_sc_hd__buf_2
*I *152:X O *D sky130_fd_sc_hd__xor2_1
*CAP
1 *167:A 0.000592255
2 *152:X 0.000592255
3 *167:A *168:A 0.000345632
4 *167:A *31:14 0.000183726
5 *167:A *34:16 3.69047e-06
6 *167:A *43:12 0.000221146
7 out[2] *167:A 0
*RES
1 *152:X *167:A 41.0821 
*END

*D_NET *30 0.00177877
*CONN
*I *168:A I *D sky130_fd_sc_hd__buf_2
*I *156:X O *D sky130_fd_sc_hd__clkbuf_1
*CAP
1 *168:A 0.000529929
2 *156:X 0.000529929
3 *168:A *43:12 0.000373275
4 *167:A *168:A 0.000345632
*RES
1 *156:X *168:A 37.5643 
*END

*D_NET *31 0.00424838
*CONN
*I *169:A I *D sky130_fd_sc_hd__buf_2
*I *157:Y O *D sky130_fd_sc_hd__a21boi_1
*CAP
1 *169:A 0
2 *157:Y 0.000762874
3 *31:14 0.000762874
4 *31:14 *34:16 0.000192912
5 *31:14 *42:16 0.000554408
6 *31:14 *43:12 8.98897e-05
7 *145:B *31:14 0.00134372
8 *157:A2 *31:14 0.000351107
9 *167:A *31:14 0.000183726
10 *24:14 *31:14 6.8646e-06
*RES
1 *157:Y *31:14 40.925 
2 *31:14 *169:A 9.3 
*END

*D_NET *32 0.0010238
*CONN
*I *170:A I *D sky130_fd_sc_hd__buf_2
*I *145:Y O *D sky130_fd_sc_hd__nor2_1
*CAP
1 *170:A 0.000447827
2 *145:Y 0.000447827
3 *151:B *170:A 0.000128146
*RES
1 *145:Y *170:A 33.0643 
*END

*D_NET *33 0.00324797
*CONN
*I *171:A I *D sky130_fd_sc_hd__buf_2
*I *146:Y O *D sky130_fd_sc_hd__xnor2_1
*CAP
1 *171:A 0.0009042
2 *146:Y 0.0009042
3 *171:A *173:A 8.96442e-05
4 out[5] *171:A 6.27457e-05
5 *146:B *171:A 0.000840247
6 *149:B *171:A 0.000446929
*RES
1 *146:Y *171:A 47.1536 
*END

*D_NET *34 0.00557596
*CONN
*I *172:A I *D sky130_fd_sc_hd__buf_2
*I *150:X O *D sky130_fd_sc_hd__clkbuf_1
*CAP
1 *172:A 0
2 *150:X 0.00132849
3 *34:16 0.00132849
4 *34:16 *173:A 0
5 *34:16 *42:16 0.000235639
6 *145:A *34:16 6.1684e-05
7 *145:B *34:16 0.000310314
8 *146:B *34:16 1.43417e-05
9 *167:A *34:16 3.69047e-06
10 *24:14 *34:16 0.0021004
11 *31:14 *34:16 0.000192912
*RES
1 *150:X *34:16 47.4786 
2 *34:16 *172:A 9.3 
*END

*D_NET *35 0.0025963
*CONN
*I *173:A I *D sky130_fd_sc_hd__clkbuf_4
*I *151:X O *D sky130_fd_sc_hd__xor2_1
*CAP
1 *173:A 0.000539602
2 *151:X 0.000539602
3 *173:A *42:16 0
4 *173:A *43:12 0.000280441
5 *149:B *173:A 0.000760846
6 *151:B *173:A 0.000386169
7 *171:A *173:A 8.96442e-05
8 *34:16 *173:A 0
*RES
1 *151:X *173:A 44.6536 
*END

*D_NET *36 0.00578888
*CONN
*I *153:B I *D sky130_fd_sc_hd__or3_1
*I *152:A I *D sky130_fd_sc_hd__xor2_1
*I *142:C I *D sky130_fd_sc_hd__or4_2
*I *154:A1 I *D sky130_fd_sc_hd__o21ai_1
*I *160:X O *D sky130_fd_sc_hd__buf_1
*CAP
1 *153:B 0.000342822
2 *152:A 0.000426283
3 *142:C 0
4 *154:A1 0.000525125
5 *160:X 0
6 *36:33 0.000571513
7 *36:10 0.00108954
8 *36:4 0.000762009
9 *152:A *142:A 4.25176e-05
10 *154:A1 *142:A 0.000143044
11 *154:A1 *144:A 0.000154762
12 *154:A1 *157:A1 0.000223443
13 *36:10 *142:A 4.46186e-06
14 *36:10 *37:10 0
15 *36:33 *142:A 9.40307e-05
16 *142:D *152:A 6.8529e-05
17 *153:C *153:B 0.00014195
18 *155:B *154:A1 5.16583e-05
19 *155:B *36:10 7.30398e-05
20 *160:A *36:10 6.05161e-06
21 *163:A *154:A1 0
22 *164:A *154:A1 5.71472e-05
23 *19:10 *152:A 1.10868e-05
24 *24:14 *152:A 0.000725165
25 *25:10 *153:B 5.49489e-05
26 *28:12 *153:B 0.000219753
*RES
1 *160:X *36:4 9.3 
2 *36:4 *36:10 12.25 
3 *36:10 *154:A1 26.6036 
4 *36:10 *36:33 7.375 
5 *36:33 *142:C 9.3 
6 *36:33 *152:A 19.8357 
7 *36:4 *153:B 16.425 
*END

*D_NET *37 0.00444325
*CONN
*I *153:A I *D sky130_fd_sc_hd__or3_1
*I *142:B I *D sky130_fd_sc_hd__or4_2
*I *154:B1 I *D sky130_fd_sc_hd__o21ai_1
*I *161:X O *D sky130_fd_sc_hd__buf_1
*CAP
1 *153:A 0.000664759
2 *142:B 0
3 *154:B1 0.000412433
4 *161:X 8.5642e-05
5 *37:10 0.000655804
6 *37:6 0.000993773
7 *154:B1 *41:14 0.000414047
8 *155:B *154:B1 0.00103702
9 *155:B *37:10 0.000142797
10 *156:A *153:A 0
11 *19:10 *154:B1 0
12 *25:10 *153:A 3.69697e-05
13 *28:16 *153:A 0
14 *28:16 *154:B1 0
15 *28:16 *37:10 0
16 *28:31 *154:B1 0
17 *36:10 *37:10 0
*RES
1 *161:X *37:6 10.2464 
2 *37:6 *37:10 9.48214 
3 *37:10 *154:B1 26.9786 
4 *37:10 *142:B 13.8 
5 *37:6 *153:A 26.2286 
*END

*D_NET *38 0.00268492
*CONN
*I *142:A I *D sky130_fd_sc_hd__or4_2
*I *157:A1 I *D sky130_fd_sc_hd__a21boi_1
*I *162:X O *D sky130_fd_sc_hd__clkbuf_1
*CAP
1 *142:A 0.000152526
2 *157:A1 0.000305882
3 *162:X 0
4 *38:6 0.000458408
5 *157:A1 *144:A 0.000153047
6 *142:D *142:A 0.000136682
7 *144:B *157:A1 0.000103937
8 *152:A *142:A 4.25176e-05
9 *154:A1 *142:A 0.000143044
10 *154:A1 *157:A1 0.000223443
11 *155:B *142:A 0.00027438
12 *155:B *157:A1 0.000561696
13 *157:A2 *157:A1 3.08664e-05
14 *24:14 *142:A 0
15 *36:10 *142:A 4.46186e-06
16 *36:33 *142:A 9.40307e-05
*RES
1 *162:X *38:6 13.8 
2 *38:6 *157:A1 23.0857 
3 *38:6 *142:A 19.05 
*END

*D_NET *39 0.00562323
*CONN
*I *148:A I *D sky130_fd_sc_hd__or4_1
*I *143:A I *D sky130_fd_sc_hd__nor2_1
*I *147:A1 I *D sky130_fd_sc_hd__o31a_1
*I *144:A I *D sky130_fd_sc_hd__and2_1
*I *163:X O *D sky130_fd_sc_hd__buf_1
*CAP
1 *148:A 0.000216267
2 *143:A 0.000371599
3 *147:A1 0
4 *144:A 7.93698e-05
5 *163:X 0
6 *39:30 0.000648156
7 *39:23 0.000340422
8 *39:4 0.000359501
9 *143:A *146:A 0
10 *143:A *42:16 5.71472e-05
11 *148:A *148:C 0.000765044
12 *39:23 *148:B 5.33005e-05
13 *39:23 *148:C 9.76435e-06
14 *39:23 *41:14 0.000185124
15 *39:30 *148:B 3.88213e-05
16 *39:30 *148:C 0.000180951
17 *143:B *143:A 0.00076945
18 *148:D *148:A 0.000683317
19 *154:A1 *144:A 0.000154762
20 *157:A1 *144:A 0.000153047
21 *157:A2 *143:A 0.000188967
22 *19:51 *148:A 5.33005e-05
23 *19:51 *39:23 4.971e-05
24 *19:51 *39:30 0.000265212
25 *28:35 *143:A 0
*RES
1 *163:X *39:4 9.3 
2 *39:4 *144:A 20.7821 
3 *39:4 *39:23 5.08929 
4 *39:23 *147:A1 9.3 
5 *39:23 *39:30 2.58929 
6 *39:30 *143:A 28.675 
7 *39:30 *148:A 17.6393 
*END

*D_NET *40 0.00471763
*CONN
*I *148:B I *D sky130_fd_sc_hd__or4_1
*I *147:A2 I *D sky130_fd_sc_hd__o31a_1
*I *146:A I *D sky130_fd_sc_hd__xnor2_1
*I *164:X O *D sky130_fd_sc_hd__buf_1
*CAP
1 *148:B 0.000387921
2 *147:A2 0
3 *146:A 0.000547718
4 *164:X 0.000150494
5 *40:23 0.000521342
6 *40:8 0.000831633
7 *148:B *148:C 0.000906773
8 *143:A *146:A 0
9 *146:B *146:A 0.000141729
10 *149:A_N *148:B 0.000527203
11 *154:A2 *40:8 1.64131e-05
12 *157:B1_N *40:23 4.22986e-05
13 *19:12 *40:23 0.000134558
14 *28:35 *146:A 0.000131297
15 *28:35 *40:23 0.000286128
16 *39:23 *148:B 5.33005e-05
17 *39:30 *148:B 3.88213e-05
*RES
1 *164:X *40:8 15.5679 
2 *40:8 *146:A 23.8893 
3 *40:8 *40:23 8.26786 
4 *40:23 *147:A2 9.3 
5 *40:23 *148:B 19.7107 
*END

*D_NET *41 0.00525515
*CONN
*I *148:C I *D sky130_fd_sc_hd__or4_1
*I *147:B1 I *D sky130_fd_sc_hd__o31a_1
*I *165:X O *D sky130_fd_sc_hd__clkbuf_1
*CAP
1 *148:C 0.000446634
2 *147:B1 0
3 *165:X 0.000803976
4 *41:14 0.00125061
5 *144:B *41:14 5.80858e-06
6 *148:A *148:C 0.000765044
7 *148:B *148:C 0.000906773
8 *154:B1 *41:14 0.000414047
9 *155:B *41:14 1.41029e-05
10 *157:A2 *148:C 1.8944e-05
11 *164:A *41:14 0
12 *166:A *41:14 0
13 *19:51 *148:C 0.000216397
14 *28:35 *148:C 3.69697e-05
15 *39:23 *148:C 9.76435e-06
16 *39:23 *41:14 0.000185124
17 *39:30 *148:C 0.000180951
*RES
1 *165:X *41:14 33.0857 
2 *41:14 *147:B1 9.3 
3 *41:14 *148:C 31.4071 
*END

*D_NET *42 0.00479657
*CONN
*I *151:A I *D sky130_fd_sc_hd__xor2_1
*I *166:X O *D sky130_fd_sc_hd__buf_1
*CAP
1 *151:A 0
2 *166:X 0.00130482
3 *42:16 0.00130482
4 *42:16 *43:12 0.000825096
5 *143:A *42:16 5.71472e-05
6 *149:B *42:16 0.000270326
7 *173:A *42:16 0
8 *20:8 *42:16 0.000244318
9 *31:14 *42:16 0.000554408
10 *34:16 *42:16 0.000235639
*RES
1 *166:X *42:16 47.8357 
2 *42:16 *151:A 9.3 
*END

*D_NET *43 0.00333121
*CONN
*I *174:A I *D sky130_fd_sc_hd__buf_2
*I *158:X O *D sky130_fd_sc_hd__clkbuf_1
*CAP
1 *174:A 0
2 *158:X 0.000770682
3 *43:12 0.000770682
4 out[3] *43:12 0
5 *151:B *43:12 0
6 *152:B *43:12 0
7 *156:A *43:12 0
8 *167:A *43:12 0.000221146
9 *168:A *43:12 0.000373275
10 *173:A *43:12 0.000280441
11 *31:14 *43:12 8.98897e-05
12 *42:16 *43:12 0.000825096
*RES
1 *158:X *43:12 41.1214 
2 *43:12 *174:A 9.3 
*END
