*SPEF "ieee 1481-1999"
*DESIGN "ZeroToFiveCounter"
*DATE "14:07:32 Sunday May 25, 2025"
*VENDOR "The OpenROAD Project"
*PROGRAM "OpenROAD"
*VERSION "b16bda7e82721d10566ff7e2b68f1ff0be9f9e38"
*DESIGN_FLOW "NAME_SCOPE LOCAL" "PIN_CAP NONE"
*DIVIDER /
*DELIMITER :
*BUS_DELIMITER []
*T_UNIT 1 NS
*C_UNIT 1 PF
*R_UNIT 1 OHM
*L_UNIT 1 HENRY

*NAME_MAP
*3 net10
*4 net11
*5 net12
*6 net13
*7 net14
*8 net15
*9 net16
*10 net9
*11 clk
*12 rst
*13 seg[0]
*14 seg[1]
*15 seg[2]
*16 seg[3]
*17 seg[4]
*18 seg[5]
*19 seg[6]
*20 _000_
*21 _001_
*22 _002_
*23 _003_
*24 _004_
*25 _005_
*26 _006_
*27 _007_
*28 _008_
*29 _009_
*30 _010_
*31 _011_
*32 _012_
*33 _013_
*34 _014_
*35 _015_
*36 _016_
*37 _017_
*38 _018_
*39 _019_
*40 _020_
*41 _021_
*42 _022_
*43 _023_
*44 _024_
*45 _025_
*46 _026_
*47 _027_
*48 _028_
*49 _029_
*50 _030_
*51 _031_
*52 _032_
*53 _033_
*54 _034_
*55 _035_
*56 _036_
*57 _037_
*58 _038_
*59 _039_
*60 _040_
*61 _041_
*62 _042_
*63 _043_
*64 _044_
*65 _045_
*66 _046_
*67 _047_
*68 _048_
*69 _049_
*70 _050_
*71 _051_
*72 _052_
*73 _053_
*74 _054_
*75 _055_
*76 _056_
*77 _057_
*78 _058_
*79 _059_
*80 _060_
*81 _061_
*82 _062_
*83 _063_
*84 _064_
*85 _065_
*86 _066_
*87 _067_
*88 _068_
*89 _069_
*90 _070_
*91 _071_
*92 _072_
*93 _073_
*94 _074_
*95 _075_
*96 _076_
*97 _077_
*98 _078_
*99 _079_
*100 _080_
*101 _081_
*102 _082_
*103 _083_
*104 _084_
*105 _085_
*106 _086_
*107 _087_
*108 _088_
*109 _089_
*110 _090_
*111 _091_
*112 _092_
*113 _093_
*114 _094_
*115 _095_
*116 _096_
*117 _097_
*118 _098_
*119 _099_
*120 _100_
*121 _101_
*122 _102_
*123 _103_
*124 _104_
*125 _105_
*126 _106_
*127 _107_
*128 _108_
*129 _109_
*130 _110_
*131 _111_
*132 _112_
*133 _113_
*134 _114_
*135 _115_
*136 _116_
*137 _117_
*138 _118_
*139 _119_
*140 _120_
*141 _121_
*142 _122_
*143 _123_
*144 _124_
*145 _125_
*146 _126_
*147 _127_
*148 _128_
*149 _129_
*150 _130_
*151 _131_
*152 _132_
*153 _133_
*154 _134_
*155 _135_
*156 _136_
*157 _137_
*158 _138_
*159 _139_
*160 _140_
*161 _141_
*162 _142_
*163 _143_
*164 _144_
*165 _145_
*166 _146_
*167 _147_
*168 _148_
*169 _149_
*170 _150_
*171 _151_
*172 _152_
*173 _153_
*174 _154_
*175 _155_
*176 _156_
*177 _157_
*178 _158_
*179 _159_
*180 _160_
*181 _161_
*182 clknet_0_clk
*183 clknet_2_0__leaf_clk
*184 clknet_2_1__leaf_clk
*185 clknet_2_2__leaf_clk
*186 clknet_2_3__leaf_clk
*187 decoder\.digit\[0\]
*188 decoder\.digit\[1\]
*189 decoder\.digit\[2\]
*190 decoder\.digit\[3\]
*191 net1
*192 net2
*193 net3
*194 net4
*195 net5
*196 net6
*197 net7
*198 net8
*199 one_second_counter\[0\]
*200 one_second_counter\[10\]
*201 one_second_counter\[11\]
*202 one_second_counter\[12\]
*203 one_second_counter\[13\]
*204 one_second_counter\[14\]
*205 one_second_counter\[15\]
*206 one_second_counter\[16\]
*207 one_second_counter\[17\]
*208 one_second_counter\[18\]
*209 one_second_counter\[19\]
*210 one_second_counter\[1\]
*211 one_second_counter\[20\]
*212 one_second_counter\[21\]
*213 one_second_counter\[22\]
*214 one_second_counter\[23\]
*215 one_second_counter\[24\]
*216 one_second_counter\[25\]
*217 one_second_counter\[26\]
*218 one_second_counter\[2\]
*219 one_second_counter\[3\]
*220 one_second_counter\[4\]
*221 one_second_counter\[5\]
*222 one_second_counter\[6\]
*223 one_second_counter\[7\]
*224 one_second_counter\[8\]
*225 one_second_counter\[9\]
*226 one_second_enable
*227 ANTENNA_1
*228 ANTENNA_2
*229 ANTENNA_3
*230 ANTENNA_4
*231 ANTENNA_5
*232 ANTENNA_6
*233 FILLER_0_0_108
*234 FILLER_0_0_116
*235 FILLER_0_0_14
*236 FILLER_0_0_20
*237 FILLER_0_0_27
*238 FILLER_0_0_33
*239 FILLER_0_0_39
*240 FILLER_0_0_51
*241 FILLER_0_0_55
*242 FILLER_0_0_6
*243 FILLER_0_0_65
*244 FILLER_0_0_73
*245 FILLER_0_0_80
*246 FILLER_0_0_85
*247 FILLER_0_0_89
*248 FILLER_0_0_96
*249 FILLER_0_10_110
*250 FILLER_0_10_122
*251 FILLER_0_10_20
*252 FILLER_0_10_27
*253 FILLER_0_10_29
*254 FILLER_0_10_3
*255 FILLER_0_10_37
*256 FILLER_0_10_62
*257 FILLER_0_10_74
*258 FILLER_0_10_8
*259 FILLER_0_10_82
*260 FILLER_0_10_94
*261 FILLER_0_11_108
*262 FILLER_0_11_118
*263 FILLER_0_11_15
*264 FILLER_0_11_19
*265 FILLER_0_11_27
*266 FILLER_0_11_3
*267 FILLER_0_11_55
*268 FILLER_0_11_57
*269 FILLER_0_11_69
*270 FILLER_0_11_76
*271 FILLER_0_12_107
*272 FILLER_0_12_119
*273 FILLER_0_12_12
*274 FILLER_0_12_29
*275 FILLER_0_12_3
*276 FILLER_0_12_36
*277 FILLER_0_12_47
*278 FILLER_0_12_53
*279 FILLER_0_12_60
*280 FILLER_0_12_68
*281 FILLER_0_12_80
*282 FILLER_0_12_85
*283 FILLER_0_12_97
*284 FILLER_0_13_103
*285 FILLER_0_13_11
*286 FILLER_0_13_110
*287 FILLER_0_13_113
*288 FILLER_0_13_3
*289 FILLER_0_13_37
*290 FILLER_0_13_44
*291 FILLER_0_13_50
*292 FILLER_0_13_82
*293 FILLER_0_14_105
*294 FILLER_0_14_117
*295 FILLER_0_14_20
*296 FILLER_0_14_29
*297 FILLER_0_14_43
*298 FILLER_0_14_55
*299 FILLER_0_14_59
*300 FILLER_0_14_6
*301 FILLER_0_14_68
*302 FILLER_0_14_85
*303 FILLER_0_14_93
*304 FILLER_0_15_100
*305 FILLER_0_15_106
*306 FILLER_0_15_110
*307 FILLER_0_15_113
*308 FILLER_0_15_16
*309 FILLER_0_15_20
*310 FILLER_0_15_3
*311 FILLER_0_15_32
*312 FILLER_0_15_45
*313 FILLER_0_15_53
*314 FILLER_0_15_8
*315 FILLER_0_15_80
*316 FILLER_0_15_88
*317 FILLER_0_15_96
*318 FILLER_0_16_117
*319 FILLER_0_16_121
*320 FILLER_0_16_29
*321 FILLER_0_16_39
*322 FILLER_0_16_46
*323 FILLER_0_16_78
*324 FILLER_0_16_83
*325 FILLER_0_17_101
*326 FILLER_0_17_109
*327 FILLER_0_17_113
*328 FILLER_0_17_23
*329 FILLER_0_17_31
*330 FILLER_0_17_57
*331 FILLER_0_18_114
*332 FILLER_0_18_122
*333 FILLER_0_18_13
*334 FILLER_0_18_25
*335 FILLER_0_18_33
*336 FILLER_0_18_45
*337 FILLER_0_18_85
*338 FILLER_0_18_89
*339 FILLER_0_19_110
*340 FILLER_0_19_116
*341 FILLER_0_19_124
*342 FILLER_0_19_16
*343 FILLER_0_19_20
*344 FILLER_0_19_27
*345 FILLER_0_19_3
*346 FILLER_0_19_35
*347 FILLER_0_19_41
*348 FILLER_0_19_53
*349 FILLER_0_19_64
*350 FILLER_0_19_9
*351 FILLER_0_1_104
*352 FILLER_0_1_113
*353 FILLER_0_1_117
*354 FILLER_0_1_15
*355 FILLER_0_1_3
*356 FILLER_0_1_41
*357 FILLER_0_1_55
*358 FILLER_0_1_57
*359 FILLER_0_1_69
*360 FILLER_0_1_80
*361 FILLER_0_1_92
*362 FILLER_0_20_15
*363 FILLER_0_20_27
*364 FILLER_0_20_29
*365 FILLER_0_20_3
*366 FILLER_0_20_41
*367 FILLER_0_20_53
*368 FILLER_0_20_62
*369 FILLER_0_20_92
*370 FILLER_0_21_105
*371 FILLER_0_21_111
*372 FILLER_0_21_113
*373 FILLER_0_21_18
*374 FILLER_0_21_32
*375 FILLER_0_21_44
*376 FILLER_0_21_54
*377 FILLER_0_21_6
*378 FILLER_0_21_60
*379 FILLER_0_21_72
*380 FILLER_0_21_79
*381 FILLER_0_22_109
*382 FILLER_0_22_121
*383 FILLER_0_22_15
*384 FILLER_0_22_3
*385 FILLER_0_22_38
*386 FILLER_0_22_46
*387 FILLER_0_22_71
*388 FILLER_0_22_83
*389 FILLER_0_22_85
*390 FILLER_0_22_97
*391 FILLER_0_23_103
*392 FILLER_0_23_108
*393 FILLER_0_23_113
*394 FILLER_0_23_12
*395 FILLER_0_23_19
*396 FILLER_0_23_27
*397 FILLER_0_23_3
*398 FILLER_0_23_34
*399 FILLER_0_23_55
*400 FILLER_0_23_57
*401 FILLER_0_23_64
*402 FILLER_0_23_75
*403 FILLER_0_23_79
*404 FILLER_0_24_10
*405 FILLER_0_24_119
*406 FILLER_0_24_22
*407 FILLER_0_24_29
*408 FILLER_0_24_3
*409 FILLER_0_24_33
*410 FILLER_0_24_41
*411 FILLER_0_24_45
*412 FILLER_0_24_70
*413 FILLER_0_24_82
*414 FILLER_0_24_85
*415 FILLER_0_24_97
*416 FILLER_0_25_100
*417 FILLER_0_25_108
*418 FILLER_0_25_113
*419 FILLER_0_25_15
*420 FILLER_0_25_27
*421 FILLER_0_25_3
*422 FILLER_0_25_36
*423 FILLER_0_25_41
*424 FILLER_0_25_48
*425 FILLER_0_25_57
*426 FILLER_0_25_69
*427 FILLER_0_25_81
*428 FILLER_0_25_93
*429 FILLER_0_26_103
*430 FILLER_0_26_115
*431 FILLER_0_26_121
*432 FILLER_0_26_19
*433 FILLER_0_26_23
*434 FILLER_0_26_27
*435 FILLER_0_26_29
*436 FILLER_0_26_41
*437 FILLER_0_26_7
*438 FILLER_0_26_71
*439 FILLER_0_26_83
*440 FILLER_0_26_88
*441 FILLER_0_26_96
*442 FILLER_0_27_103
*443 FILLER_0_27_11
*444 FILLER_0_27_111
*445 FILLER_0_27_113
*446 FILLER_0_27_121
*447 FILLER_0_27_23
*448 FILLER_0_27_3
*449 FILLER_0_27_35
*450 FILLER_0_27_47
*451 FILLER_0_27_55
*452 FILLER_0_27_57
*453 FILLER_0_27_87
*454 FILLER_0_27_99
*455 FILLER_0_28_112
*456 FILLER_0_28_124
*457 FILLER_0_28_15
*458 FILLER_0_28_27
*459 FILLER_0_28_29
*460 FILLER_0_28_3
*461 FILLER_0_28_41
*462 FILLER_0_28_53
*463 FILLER_0_28_88
*464 FILLER_0_29_100
*465 FILLER_0_29_104
*466 FILLER_0_29_108
*467 FILLER_0_29_113
*468 FILLER_0_29_15
*469 FILLER_0_29_27
*470 FILLER_0_29_3
*471 FILLER_0_29_33
*472 FILLER_0_29_41
*473 FILLER_0_29_47
*474 FILLER_0_29_52
*475 FILLER_0_29_57
*476 FILLER_0_29_65
*477 FILLER_0_29_94
*478 FILLER_0_2_100
*479 FILLER_0_2_112
*480 FILLER_0_2_121
*481 FILLER_0_2_15
*482 FILLER_0_2_27
*483 FILLER_0_2_29
*484 FILLER_0_2_3
*485 FILLER_0_2_33
*486 FILLER_0_2_42
*487 FILLER_0_2_47
*488 FILLER_0_2_59
*489 FILLER_0_2_71
*490 FILLER_0_2_83
*491 FILLER_0_2_85
*492 FILLER_0_30_109
*493 FILLER_0_30_124
*494 FILLER_0_30_26
*495 FILLER_0_30_29
*496 FILLER_0_30_3
*497 FILLER_0_30_37
*498 FILLER_0_30_60
*499 FILLER_0_30_72
*500 FILLER_0_30_85
*501 FILLER_0_30_93
*502 FILLER_0_30_97
*503 FILLER_0_31_104
*504 FILLER_0_31_113
*505 FILLER_0_31_121
*506 FILLER_0_31_18
*507 FILLER_0_31_24
*508 FILLER_0_31_29
*509 FILLER_0_31_3
*510 FILLER_0_31_41
*511 FILLER_0_31_50
*512 FILLER_0_31_57
*513 FILLER_0_31_69
*514 FILLER_0_31_81
*515 FILLER_0_31_85
*516 FILLER_0_31_97
*517 FILLER_0_3_110
*518 FILLER_0_3_118
*519 FILLER_0_3_124
*520 FILLER_0_3_15
*521 FILLER_0_3_27
*522 FILLER_0_3_3
*523 FILLER_0_3_31
*524 FILLER_0_3_36
*525 FILLER_0_3_44
*526 FILLER_0_3_57
*527 FILLER_0_3_68
*528 FILLER_0_3_81
*529 FILLER_0_3_93
*530 FILLER_0_4_124
*531 FILLER_0_4_26
*532 FILLER_0_4_29
*533 FILLER_0_4_33
*534 FILLER_0_4_39
*535 FILLER_0_4_46
*536 FILLER_0_4_58
*537 FILLER_0_4_70
*538 FILLER_0_4_76
*539 FILLER_0_4_80
*540 FILLER_0_4_85
*541 FILLER_0_4_97
*542 FILLER_0_5_111
*543 FILLER_0_5_113
*544 FILLER_0_5_117
*545 FILLER_0_5_120
*546 FILLER_0_5_20
*547 FILLER_0_5_3
*548 FILLER_0_5_32
*549 FILLER_0_5_36
*550 FILLER_0_5_44
*551 FILLER_0_5_50
*552 FILLER_0_5_54
*553 FILLER_0_5_57
*554 FILLER_0_5_69
*555 FILLER_0_5_8
*556 FILLER_0_5_81
*557 FILLER_0_5_93
*558 FILLER_0_6_105
*559 FILLER_0_6_109
*560 FILLER_0_6_113
*561 FILLER_0_6_122
*562 FILLER_0_6_15
*563 FILLER_0_6_27
*564 FILLER_0_6_29
*565 FILLER_0_6_3
*566 FILLER_0_6_41
*567 FILLER_0_6_49
*568 FILLER_0_6_71
*569 FILLER_0_6_83
*570 FILLER_0_7_10
*571 FILLER_0_7_105
*572 FILLER_0_7_111
*573 FILLER_0_7_113
*574 FILLER_0_7_120
*575 FILLER_0_7_124
*576 FILLER_0_7_22
*577 FILLER_0_7_3
*578 FILLER_0_7_30
*579 FILLER_0_7_40
*580 FILLER_0_7_52
*581 FILLER_0_7_57
*582 FILLER_0_7_69
*583 FILLER_0_7_81
*584 FILLER_0_7_93
*585 FILLER_0_8_105
*586 FILLER_0_8_117
*587 FILLER_0_8_18
*588 FILLER_0_8_26
*589 FILLER_0_8_29
*590 FILLER_0_8_44
*591 FILLER_0_8_6
*592 FILLER_0_8_62
*593 FILLER_0_8_77
*594 FILLER_0_8_83
*595 FILLER_0_9_100
*596 FILLER_0_9_109
*597 FILLER_0_9_11
*598 FILLER_0_9_113
*599 FILLER_0_9_23
*600 FILLER_0_9_3
*601 FILLER_0_9_34
*602 FILLER_0_9_57
*603 FILLER_0_9_70
*604 FILLER_0_9_82
*605 FILLER_0_9_94
*606 PHY_EDGE_ROW_0_Left_32
*607 PHY_EDGE_ROW_0_Right_0
*608 PHY_EDGE_ROW_10_Left_42
*609 PHY_EDGE_ROW_10_Right_10
*610 PHY_EDGE_ROW_11_Left_43
*611 PHY_EDGE_ROW_11_Right_11
*612 PHY_EDGE_ROW_12_Left_44
*613 PHY_EDGE_ROW_12_Right_12
*614 PHY_EDGE_ROW_13_Left_45
*615 PHY_EDGE_ROW_13_Right_13
*616 PHY_EDGE_ROW_14_Left_46
*617 PHY_EDGE_ROW_14_Right_14
*618 PHY_EDGE_ROW_15_Left_47
*619 PHY_EDGE_ROW_15_Right_15
*620 PHY_EDGE_ROW_16_Left_48
*621 PHY_EDGE_ROW_16_Right_16
*622 PHY_EDGE_ROW_17_Left_49
*623 PHY_EDGE_ROW_17_Right_17
*624 PHY_EDGE_ROW_18_Left_50
*625 PHY_EDGE_ROW_18_Right_18
*626 PHY_EDGE_ROW_19_Left_51
*627 PHY_EDGE_ROW_19_Right_19
*628 PHY_EDGE_ROW_1_Left_33
*629 PHY_EDGE_ROW_1_Right_1
*630 PHY_EDGE_ROW_20_Left_52
*631 PHY_EDGE_ROW_20_Right_20
*632 PHY_EDGE_ROW_21_Left_53
*633 PHY_EDGE_ROW_21_Right_21
*634 PHY_EDGE_ROW_22_Left_54
*635 PHY_EDGE_ROW_22_Right_22
*636 PHY_EDGE_ROW_23_Left_55
*637 PHY_EDGE_ROW_23_Right_23
*638 PHY_EDGE_ROW_24_Left_56
*639 PHY_EDGE_ROW_24_Right_24
*640 PHY_EDGE_ROW_25_Left_57
*641 PHY_EDGE_ROW_25_Right_25
*642 PHY_EDGE_ROW_26_Left_58
*643 PHY_EDGE_ROW_26_Right_26
*644 PHY_EDGE_ROW_27_Left_59
*645 PHY_EDGE_ROW_27_Right_27
*646 PHY_EDGE_ROW_28_Left_60
*647 PHY_EDGE_ROW_28_Right_28
*648 PHY_EDGE_ROW_29_Left_61
*649 PHY_EDGE_ROW_29_Right_29
*650 PHY_EDGE_ROW_2_Left_34
*651 PHY_EDGE_ROW_2_Right_2
*652 PHY_EDGE_ROW_30_Left_62
*653 PHY_EDGE_ROW_30_Right_30
*654 PHY_EDGE_ROW_31_Left_63
*655 PHY_EDGE_ROW_31_Right_31
*656 PHY_EDGE_ROW_3_Left_35
*657 PHY_EDGE_ROW_3_Right_3
*658 PHY_EDGE_ROW_4_Left_36
*659 PHY_EDGE_ROW_4_Right_4
*660 PHY_EDGE_ROW_5_Left_37
*661 PHY_EDGE_ROW_5_Right_5
*662 PHY_EDGE_ROW_6_Left_38
*663 PHY_EDGE_ROW_6_Right_6
*664 PHY_EDGE_ROW_7_Left_39
*665 PHY_EDGE_ROW_7_Right_7
*666 PHY_EDGE_ROW_8_Left_40
*667 PHY_EDGE_ROW_8_Right_8
*668 PHY_EDGE_ROW_9_Left_41
*669 PHY_EDGE_ROW_9_Right_9
*670 TAP_TAPCELL_ROW_0_64
*671 TAP_TAPCELL_ROW_0_65
*672 TAP_TAPCELL_ROW_0_66
*673 TAP_TAPCELL_ROW_0_67
*674 TAP_TAPCELL_ROW_10_86
*675 TAP_TAPCELL_ROW_10_87
*676 TAP_TAPCELL_ROW_11_88
*677 TAP_TAPCELL_ROW_11_89
*678 TAP_TAPCELL_ROW_12_90
*679 TAP_TAPCELL_ROW_12_91
*680 TAP_TAPCELL_ROW_13_92
*681 TAP_TAPCELL_ROW_13_93
*682 TAP_TAPCELL_ROW_14_94
*683 TAP_TAPCELL_ROW_14_95
*684 TAP_TAPCELL_ROW_15_96
*685 TAP_TAPCELL_ROW_15_97
*686 TAP_TAPCELL_ROW_16_98
*687 TAP_TAPCELL_ROW_16_99
*688 TAP_TAPCELL_ROW_17_100
*689 TAP_TAPCELL_ROW_17_101
*690 TAP_TAPCELL_ROW_18_102
*691 TAP_TAPCELL_ROW_18_103
*692 TAP_TAPCELL_ROW_19_104
*693 TAP_TAPCELL_ROW_19_105
*694 TAP_TAPCELL_ROW_1_68
*695 TAP_TAPCELL_ROW_1_69
*696 TAP_TAPCELL_ROW_20_106
*697 TAP_TAPCELL_ROW_20_107
*698 TAP_TAPCELL_ROW_21_108
*699 TAP_TAPCELL_ROW_21_109
*700 TAP_TAPCELL_ROW_22_110
*701 TAP_TAPCELL_ROW_22_111
*702 TAP_TAPCELL_ROW_23_112
*703 TAP_TAPCELL_ROW_23_113
*704 TAP_TAPCELL_ROW_24_114
*705 TAP_TAPCELL_ROW_24_115
*706 TAP_TAPCELL_ROW_25_116
*707 TAP_TAPCELL_ROW_25_117
*708 TAP_TAPCELL_ROW_26_118
*709 TAP_TAPCELL_ROW_26_119
*710 TAP_TAPCELL_ROW_27_120
*711 TAP_TAPCELL_ROW_27_121
*712 TAP_TAPCELL_ROW_28_122
*713 TAP_TAPCELL_ROW_28_123
*714 TAP_TAPCELL_ROW_29_124
*715 TAP_TAPCELL_ROW_29_125
*716 TAP_TAPCELL_ROW_2_70
*717 TAP_TAPCELL_ROW_2_71
*718 TAP_TAPCELL_ROW_30_126
*719 TAP_TAPCELL_ROW_30_127
*720 TAP_TAPCELL_ROW_31_128
*721 TAP_TAPCELL_ROW_31_129
*722 TAP_TAPCELL_ROW_31_130
*723 TAP_TAPCELL_ROW_31_131
*724 TAP_TAPCELL_ROW_3_72
*725 TAP_TAPCELL_ROW_3_73
*726 TAP_TAPCELL_ROW_4_74
*727 TAP_TAPCELL_ROW_4_75
*728 TAP_TAPCELL_ROW_5_76
*729 TAP_TAPCELL_ROW_5_77
*730 TAP_TAPCELL_ROW_6_78
*731 TAP_TAPCELL_ROW_6_79
*732 TAP_TAPCELL_ROW_7_80
*733 TAP_TAPCELL_ROW_7_81
*734 TAP_TAPCELL_ROW_8_82
*735 TAP_TAPCELL_ROW_8_83
*736 TAP_TAPCELL_ROW_9_84
*737 TAP_TAPCELL_ROW_9_85
*738 ZeroToFiveCounter_10
*739 ZeroToFiveCounter_11
*740 ZeroToFiveCounter_12
*741 ZeroToFiveCounter_13
*742 ZeroToFiveCounter_14
*743 ZeroToFiveCounter_15
*744 ZeroToFiveCounter_16
*745 ZeroToFiveCounter_9
*746 _162_
*747 _163_
*748 _164_
*749 _165_
*750 _166_
*751 _167_
*752 _168_
*753 _169_
*754 _170_
*755 _171_
*756 _172_
*757 _173_
*758 _174_
*759 _175_
*760 _176_
*761 _177_
*762 _178_
*763 _179_
*764 _180_
*765 _181_
*766 _182_
*767 _183_
*768 _184_
*769 _185_
*770 _186_
*771 _187_
*772 _188_
*773 _189_
*774 _190_
*775 _191_
*776 _192_
*777 _193_
*778 _194_
*779 _195_
*780 _196_
*781 _197_
*782 _198_
*783 _199_
*784 _200_
*785 _201_
*786 _202_
*787 _203_
*788 _204_
*789 _205_
*790 _206_
*791 _207_
*792 _208_
*793 _209_
*794 _210_
*795 _211_
*796 _212_
*797 _213_
*798 _214_
*799 _215_
*800 _216_
*801 _217_
*802 _218_
*803 _219_
*804 _220_
*805 _221_
*806 _222_
*807 _223_
*808 _224_
*809 _225_
*810 _226_
*811 _227_
*812 _228_
*813 _229_
*814 _230_
*815 _231_
*816 _232_
*817 _233_
*818 _234_
*819 _235_
*820 _236_
*821 _237_
*822 _238_
*823 _239_
*824 _240_
*825 _241_
*826 _242_
*827 _243_
*828 _244_
*829 _245_
*830 _246_
*831 _247_
*832 _248_
*833 _249_
*834 _250_
*835 _251_
*836 _252_
*837 _253_
*838 _254_
*839 _255_
*840 _256_
*841 _257_
*842 _258_
*843 _259_
*844 _260_
*845 _261_
*846 _262_
*847 _263_
*848 _264_
*849 _265_
*850 _266_
*851 _267_
*852 _268_
*853 _269_
*854 _270_
*855 _271_
*856 _272_
*857 _273_
*858 _274_
*859 _275_
*860 _276_
*861 _277_
*862 _278_
*863 _279_
*864 _280_
*865 _281_
*866 _282_
*867 _283_
*868 _284_
*869 _285_
*870 _286_
*871 _287_
*872 _288_
*873 _289_
*874 _290_
*875 _291_
*876 _292_
*877 _293_
*878 _294_
*879 _295_
*880 _296_
*881 _297_
*882 _298_
*883 _299_
*884 _300_
*885 _301_
*886 _302_
*887 _303_
*888 _304_
*889 _305_
*890 _306_
*891 _307_
*892 _308_
*893 _309_
*894 _310_
*895 _311_
*896 _312_
*897 _313_
*898 _314_
*899 _315_
*900 _316_
*901 _317_
*902 _318_
*903 _319_
*904 _320_
*905 _321_
*906 _322_
*907 _323_
*908 _324_
*909 _325_
*910 _326_
*911 _327_
*912 _328_
*913 _329_
*914 _330_
*915 _331_
*916 _332_
*917 _333_
*918 _334_
*919 _335_
*920 _336_
*921 _337_
*922 _338_
*923 _339_
*924 _340_
*925 _341_
*926 _342_
*927 _343_
*928 _344_
*929 _345_
*930 _346_
*931 _347_
*932 _348_
*933 _349_
*934 _350_
*935 _351_
*936 _352_
*937 _353_
*938 _354_
*939 _355_
*940 _356_
*941 _357_
*942 _358_
*943 _359_
*944 _360_
*945 _361_
*946 _370_
*947 clkbuf_0_clk
*948 clkbuf_2_0__f_clk
*949 clkbuf_2_1__f_clk
*950 clkbuf_2_2__f_clk
*951 clkbuf_2_3__f_clk
*952 clkload0
*953 clkload1
*954 clkload2
*955 input1
*956 output2
*957 output3
*958 output4
*959 output5
*960 output6
*961 output7
*962 output8

*PORTS
an[0] O
an[1] O
an[2] O
an[3] O
an[4] O
an[5] O
an[6] O
an[7] O
clk I
rst I
seg[0] O
seg[1] O
seg[2] O
seg[3] O
seg[4] O
seg[5] O
seg[6] O

*D_NET *3 0.00161122
*CONN
*P an[0] O
*I *738:HI O *D sky130_fd_sc_hd__conb_1
*CAP
1 an[0] 0.000516994
2 *738:HI 0.000162226
3 *3:8 0.00067922
4 an[0] *19:10 0
5 an[0] *53:18 0.000252779
6 *3:8 *53:14 0
*RES
1 *738:HI *3:8 41.0036 
2 *3:8 an[0] 11.5171 
*END

*D_NET *4 0.00101566
*CONN
*P an[1] O
*I *739:HI O *D sky130_fd_sc_hd__conb_1
*CAP
1 an[1] 0.000445878
2 *739:HI 0.000445878
3 an[1] *915:RESET_B 2.5415e-05
4 an[1] *53:14 9.84851e-05
5 an[1] *225:71 0
*RES
1 *739:HI an[1] 47.0936 
*END

*D_NET *5 0.000935619
*CONN
*P an[2] O
*I *740:HI O *D sky130_fd_sc_hd__conb_1
*CAP
1 an[2] 0.000440304
2 *740:HI 0.000440304
3 an[2] *53:14 5.50106e-05
*RES
1 *740:HI an[2] 46.6171 
*END

*D_NET *6 0.00101735
*CONN
*P an[3] O
*I *741:HI O *D sky130_fd_sc_hd__conb_1
*CAP
1 an[3] 0.000499734
2 *741:HI 0.000499734
3 an[3] *179:29 1.78821e-05
*RES
1 *741:HI an[3] 47.86 
*END

*D_NET *7 0.00161151
*CONN
*P an[4] O
*I *742:HI O *D sky130_fd_sc_hd__conb_1
*CAP
1 an[4] 0.000422256
2 *742:HI 0.000139456
3 *7:8 0.000561712
4 an[4] *115:187 1.83564e-05
5 an[4] *158:10 0
6 *7:8 *844:C 6.25714e-05
7 *7:8 *115:187 5.50106e-05
8 *7:8 *179:29 0.00035215
*RES
1 *742:HI *7:8 41.9564 
2 *7:8 an[4] 8.7 
*END

*D_NET *8 0.000902484
*CONN
*P an[5] O
*I *743:HI O *D sky130_fd_sc_hd__conb_1
*CAP
1 an[5] 0.000441501
2 *743:HI 0.000441501
3 an[5] *179:29 1.94812e-05
4 an[5] *225:63 0
*RES
1 *743:HI an[5] 46.6171 
*END

*D_NET *9 0.00101991
*CONN
*P an[6] O
*I *744:HI O *D sky130_fd_sc_hd__conb_1
*CAP
1 an[6] 0.000493768
2 *744:HI 0.000493768
3 an[6] *49:8 0
4 an[6] *179:18 3.23732e-05
*RES
1 *744:HI an[6] 47.86 
*END

*D_NET *10 0.00110264
*CONN
*P an[7] O
*I *745:LO O *D sky130_fd_sc_hd__conb_1
*CAP
1 an[7] 0.000551322
2 *745:LO 0.000551322
*RES
1 *745:LO an[7] 49.7036 
*END

*D_NET *11 0.0129352
*CONN
*P clk I
*I *947:A I *D sky130_fd_sc_hd__clkbuf_16
*CAP
1 clk 0.00382603
2 *947:A 0.000294936
3 *11:21 0.00412097
4 *947:A *830:A1 2.64616e-05
5 *947:A *830:B1 5.62191e-05
6 *947:A *26:8 5.07127e-05
7 *947:A *47:62 0.000199652
8 *947:A *84:10 5.3304e-05
9 *947:A *84:22 0.000135037
10 *947:A *143:33 5.50112e-05
11 *947:A *147:34 4.96303e-05
12 *947:A *156:20 1.21972e-05
13 *11:21 *47:41 0.000142455
14 *11:21 *73:16 6.05592e-05
15 *11:21 *84:10 3.39102e-05
16 *11:21 *86:30 0
17 *11:21 *116:22 0.000300491
18 *11:21 *146:24 1.15994e-05
19 *11:21 *147:34 0.000287105
20 *11:21 *156:12 2.05503e-05
21 *11:21 *156:86 0.000120335
22 *11:21 *173:24 0.000407925
23 *11:21 *178:24 0.000148266
24 *11:21 *181:18 3.61511e-05
25 *11:21 *181:24 7.07958e-05
26 *11:21 *187:40 5.24121e-05
27 *11:21 *191:59 0.000380574
28 *11:21 *197:26 0.000224406
29 *11:21 *219:34 0.00171079
30 *11:21 *226:36 4.6719e-05
*RES
1 clk *11:21 35.6367 
2 *11:21 *947:A 44.6493 
*END

*D_NET *12 0.000915976
*CONN
*P rst I
*I *955:A I *D sky130_fd_sc_hd__clkbuf_2
*CAP
1 rst 0.0003705
2 *955:A 0
3 *12:17 0.0003705
4 *12:17 *34:24 9.94886e-05
5 *12:17 *34:26 7.54877e-05
6 *12:17 *102:22 0
*RES
1 rst *12:17 28.3391 
2 *12:17 *955:A 23 
*END

*D_NET *13 0.000879407
*CONN
*P seg[0] O
*I *956:X O *D sky130_fd_sc_hd__buf_1
*CAP
1 seg[0] 0.000439703
2 *956:X 0.000439703
3 seg[0] *63:24 0
*RES
1 *956:X seg[0] 49.1918 
*END

*D_NET *14 0.000796732
*CONN
*P seg[1] O
*I *957:X O *D sky130_fd_sc_hd__buf_1
*CAP
1 seg[1] 0.000338721
2 *957:X 0.000338721
3 seg[1] *70:14 0.000106548
4 seg[1] *193:18 1.27424e-05
*RES
1 *957:X seg[1] 47.0789 
*END

*D_NET *15 0.0011553
*CONN
*P seg[2] O
*I *958:X O *D sky130_fd_sc_hd__buf_1
*CAP
1 seg[2] 0.000492328
2 *958:X 0.000492328
3 seg[2] *40:20 0
4 seg[2] *88:14 0.000129346
5 seg[2] *194:26 4.12985e-05
*RES
1 *958:X seg[2] 48.4875 
*END

*D_NET *16 0.00101436
*CONN
*P seg[3] O
*I *959:X O *D sky130_fd_sc_hd__buf_1
*CAP
1 seg[3] 0.00019468
2 *959:X 0.000204629
3 *16:10 0.00039931
4 *16:10 *40:16 5.62138e-05
5 *16:10 *64:14 0.000130191
6 *16:10 *195:43 2.93335e-05
*RES
1 *959:X *16:10 42.2568 
2 *16:10 seg[3] 8.32853 
*END

*D_NET *17 0.00118181
*CONN
*P seg[4] O
*I *960:X O *D sky130_fd_sc_hd__buf_1
*CAP
1 seg[4] 0.000499001
2 *960:X 0.000499001
3 seg[4] *64:14 0
4 seg[4] *95:82 2.30603e-05
5 seg[4] *162:16 0.000156987
6 seg[4] *189:59 3.76422e-06
*RES
1 *960:X seg[4] 48.8397 
*END

*D_NET *18 0.000858305
*CONN
*P seg[5] O
*I *961:X O *D sky130_fd_sc_hd__buf_1
*CAP
1 seg[5] 0.000403203
2 *961:X 0.000403203
3 seg[5] *63:24 2.71971e-05
4 seg[5] *127:16 2.47015e-05
5 seg[5] *194:26 0
*RES
1 *961:X seg[5] 47.0789 
*END

*D_NET *19 0.00139733
*CONN
*P seg[6] O
*I *962:X O *D sky130_fd_sc_hd__buf_1
*CAP
1 seg[6] 0.000273053
2 *962:X 0.000364727
3 *19:10 0.00063778
4 seg[6] *158:26 9.35736e-05
5 *19:10 *224:30 2.81926e-05
6 *19:10 *225:71 0
7 an[0] *19:10 0
*RES
1 *962:X *19:10 43.1682 
2 *19:10 seg[6] 8.9296 
*END

*D_NET *20 0.0257142
*CONN
*I *232:DIODE I *D sky130_fd_sc_hd__diode_2
*I *914:D I *D sky130_fd_sc_hd__dfrtp_4
*I *774:Y O *D sky130_fd_sc_hd__nor2_1
*CAP
1 *232:DIODE 0.000278713
2 *914:D 0
3 *774:Y 0.000145079
4 *20:40 0.000364953
5 *20:32 0.00150492
6 *20:26 0.00298682
7 *20:16 0.00438727
8 *20:8 0.00296421
9 *232:DIODE *183:16 0.000133548
10 *232:DIODE *183:28 6.70361e-05
11 *20:8 *30:8 7.51432e-05
12 *20:8 *93:8 0.000305136
13 *20:8 *186:98 0.000108952
14 *20:16 *913:A 9.94618e-05
15 *20:16 *35:20 0.00085708
16 *20:16 *70:14 0.000104499
17 *20:16 *83:20 0.000512763
18 *20:16 *95:105 0.000178174
19 *20:16 *105:38 0.000110669
20 *20:16 *105:54 0.000165227
21 *20:16 *136:22 0
22 *20:16 *137:26 0.00200677
23 *20:16 *151:22 0.000860055
24 *20:16 *181:169 0.000240832
25 *20:16 *188:46 1.72791e-05
26 *20:16 *191:10 0.000307309
27 *20:16 *198:10 0.000172005
28 *20:16 *211:16 3.25408e-05
29 *20:16 *226:62 9.95437e-06
30 *20:26 *29:32 0
31 *20:26 *32:20 0.000142982
32 *20:26 *58:18 0.000253735
33 *20:26 *107:10 0.000960885
34 *20:26 *107:24 0.000528704
35 *20:26 *108:30 2.09559e-05
36 *20:26 *121:18 0.000829615
37 *20:26 *134:65 0.000154201
38 *20:26 *157:24 0.000147249
39 *20:26 *191:59 0.000212802
40 *20:26 *202:51 5.48958e-05
41 *20:32 *914:RESET_B 2.95843e-05
42 *20:32 *59:18 0.000893724
43 *20:32 *107:10 1.5037e-05
44 *20:32 *116:22 0.000252083
45 *20:32 *121:18 0.000116192
46 *20:32 *142:34 0.00187815
47 *20:32 *199:10 1.85916e-05
48 *20:40 *39:16 0.000116025
49 *20:40 *98:10 2.29461e-05
50 *20:40 *183:28 6.94438e-05
*RES
1 *774:Y *20:8 42.1946 
2 *20:8 *20:16 47.9268 
3 *20:16 *20:26 32.2473 
4 *20:26 *20:32 49.8725 
5 *20:32 *20:40 32.175 
6 *20:40 *914:D 23 
7 *20:40 *232:DIODE 27.4329 
*END

*D_NET *21 0.00233732
*CONN
*I *924:D I *D sky130_fd_sc_hd__dfrtp_2
*I *810:X O *D sky130_fd_sc_hd__clkbuf_1
*CAP
1 *924:D 0
2 *810:X 5.33279e-05
3 *21:22 0.000836039
4 *21:8 0.000889367
5 *21:8 *114:24 0.00014411
6 *21:8 *124:14 0.00014041
7 *21:22 *824:A 0.000158505
8 *21:22 *824:B 9.17365e-05
9 *21:22 *143:8 2.38288e-05
*RES
1 *810:X *21:8 39.9057 
2 *21:8 *21:22 27.76 
3 *21:22 *924:D 23 
*END

*D_NET *22 0.00995946
*CONN
*I *925:D I *D sky130_fd_sc_hd__dfrtp_1
*I *813:Y O *D sky130_fd_sc_hd__nor3_1
*CAP
1 *925:D 0
2 *813:Y 0.000216613
3 *22:34 0.00280902
4 *22:12 0.00302563
5 *22:12 *26:8 3.72146e-05
6 *22:12 *47:62 0.000250011
7 *22:12 *143:33 4.6954e-05
8 *22:12 *182:16 4.96207e-05
9 *22:12 *200:10 0.000114198
10 *22:12 *200:30 5.56279e-05
11 *22:34 *765:C 0
12 *22:34 *814:A 6.17969e-05
13 *22:34 *47:41 0.000288707
14 *22:34 *56:26 6.88952e-05
15 *22:34 *58:18 0.00114363
16 *22:34 *73:16 0
17 *22:34 *109:20 0.000204404
18 *22:34 *115:76 0
19 *22:34 *115:95 0
20 *22:34 *134:65 1.58746e-05
21 *22:34 *143:33 0.000105797
22 *22:34 *145:26 0.000185896
23 *22:34 *178:24 1.30036e-05
24 *22:34 *181:16 3.03281e-06
25 *22:34 *185:24 0.000142316
26 *22:34 *187:60 0.000558909
27 *22:34 *187:70 0.000227379
28 *22:34 *188:105 0.00012361
29 *22:34 *204:28 8.95118e-05
30 *22:34 *207:114 8.49483e-05
31 *22:34 *219:14 3.6865e-05
*RES
1 *813:Y *22:12 43.2304 
2 *22:12 *22:34 44.6208 
3 *22:34 *925:D 23 
*END

*D_NET *23 0.00995608
*CONN
*I *926:D I *D sky130_fd_sc_hd__dfrtp_2
*I *817:X O *D sky130_fd_sc_hd__clkbuf_1
*CAP
1 *926:D 0
2 *817:X 0
3 *23:28 0.00029241
4 *23:20 0.00225695
5 *23:6 0.00196454
6 *23:20 *945:RESET_B 0.000601677
7 *23:20 *951:A 5.96375e-05
8 *23:20 *26:36 2.13985e-05
9 *23:20 *27:26 0.00126958
10 *23:20 *84:34 1.17055e-05
11 *23:20 *106:30 0.000303554
12 *23:20 *156:32 0.000260846
13 *23:20 *170:74 0
14 *23:20 *180:143 4.56321e-05
15 *23:20 *190:58 0
16 *23:20 *206:28 0.00137801
17 *23:20 *220:43 0.000827423
18 *23:20 *222:60 0.000111432
19 *23:28 *25:16 9.55606e-05
20 *23:28 *25:22 2.57803e-05
21 *23:28 *118:30 0.000239907
22 *23:28 *170:25 9.41704e-05
23 *23:28 *178:10 9.58681e-05
*RES
1 *817:X *23:6 38 
2 *23:6 *23:20 46.3373 
3 *23:20 *23:28 28.0646 
4 *23:28 *926:D 23 
*END

*D_NET *24 0.00637353
*CONN
*I *927:D I *D sky130_fd_sc_hd__dfrtp_1
*I *821:X O *D sky130_fd_sc_hd__clkbuf_1
*CAP
1 *927:D 0
2 *821:X 0.000292502
3 *24:12 0.00166226
4 *24:8 0.00195476
5 *24:8 *149:27 0.00047238
6 *24:8 *226:20 0.000475673
7 *24:12 *927:CLK 2.91078e-05
8 *24:12 *184:25 0.000278644
9 *24:12 *189:39 0.00102736
10 *24:12 *209:42 0.000180841
*RES
1 *821:X *24:8 44.8357 
2 *24:8 *24:12 37.5993 
3 *24:12 *927:D 23 
*END

*D_NET *25 0.00409363
*CONN
*I *928:D I *D sky130_fd_sc_hd__dfrtp_1
*I *826:X O *D sky130_fd_sc_hd__clkbuf_1
*CAP
1 *928:D 0
2 *826:X 0.000529853
3 *25:22 0.000661693
4 *25:16 0.00119155
5 *25:16 *90:38 0.000100061
6 *25:16 *118:30 5.64478e-05
7 *25:16 *170:25 0.000205077
8 *25:16 *184:61 0.000132302
9 *25:22 *918:RESET_B 6.56654e-05
10 *25:22 *113:16 0.000239193
11 *25:22 *132:12 5.54294e-05
12 *25:22 *134:65 0
13 *25:22 *139:46 2.93335e-05
14 *25:22 *178:10 0.000288331
15 *25:22 *188:125 2.00698e-05
16 *25:22 *200:10 0.000150471
17 *25:22 *213:52 0
18 *25:22 *220:43 0.000118847
19 *25:22 *225:10 0.00012797
20 *23:28 *25:16 9.55606e-05
21 *23:28 *25:22 2.57803e-05
*RES
1 *826:X *25:16 47.1454 
2 *25:16 *25:22 27.5632 
3 *25:22 *928:D 23 
*END

*D_NET *26 0.0111323
*CONN
*I *929:D I *D sky130_fd_sc_hd__dfrtp_1
*I *830:Y O *D sky130_fd_sc_hd__a211oi_1
*CAP
1 *929:D 0
2 *830:Y 0.00110418
3 *26:44 0.00023056
4 *26:36 0.00192782
5 *26:16 0.00203225
6 *26:8 0.00143917
7 *26:8 *830:A1 5.50049e-05
8 *26:8 *47:62 2.03764e-06
9 *26:8 *47:73 3.7122e-06
10 *26:8 *143:33 0.000600843
11 *26:8 *182:16 0.000178227
12 *26:8 *200:30 7.08368e-05
13 *26:16 *912:A 0.000202391
14 *26:16 *918:D 8.4047e-05
15 *26:16 *923:RESET_B 4.05745e-05
16 *26:16 *188:138 0.000138607
17 *26:16 *212:22 4.5637e-05
18 *26:36 *793:C 5.69011e-05
19 *26:36 *27:14 4.68487e-05
20 *26:36 *57:26 0
21 *26:36 *78:24 0.000166706
22 *26:36 *106:30 0.000912199
23 *26:36 *127:16 8.8193e-05
24 *26:36 *134:32 0.000282898
25 *26:36 *156:32 0.000126534
26 *26:36 *184:90 6.92184e-05
27 *26:36 *199:74 3.35885e-06
28 *26:36 *206:28 0.000707624
29 *26:36 *219:61 4.49388e-05
30 *26:36 *220:43 2.55744e-05
31 *26:44 *929:CLK 0.000120147
32 *26:44 *134:16 2.61151e-05
33 *26:44 *152:12 6.33258e-05
34 *26:44 *199:39 1.73244e-05
35 *26:44 *199:41 6.92122e-05
36 *26:44 *205:8 3.99649e-05
37 *947:A *26:8 5.07127e-05
38 *22:12 *26:8 3.72146e-05
39 *23:20 *26:36 2.13985e-05
*RES
1 *830:Y *26:8 37.935 
2 *26:8 *26:16 35.4893 
3 *26:16 *26:36 44.7555 
4 *26:36 *26:44 27.4846 
5 *26:44 *929:D 23 
*END

*D_NET *27 0.0217589
*CONN
*I *930:D I *D sky130_fd_sc_hd__dfrtp_4
*I *834:X O *D sky130_fd_sc_hd__buf_1
*CAP
1 *930:D 0.00018394
2 *834:X 0.000311693
3 *27:26 0.000918546
4 *27:20 0.00266094
5 *27:16 0.00287023
6 *27:14 0.00263395
7 *27:8 0.00200175
8 *930:D *930:CLK 1.94693e-05
9 *930:D *180:164 1.32289e-05
10 *27:8 *110:14 0.000689639
11 *27:8 *142:56 1.05441e-05
12 *27:8 *199:39 0.000328351
13 *27:14 *57:26 1.92442e-05
14 *27:14 *63:24 0.00112376
15 *27:14 *127:16 0.000531532
16 *27:14 *197:26 0
17 *27:16 *53:18 2.52871e-05
18 *27:16 *55:14 0.000893546
19 *27:16 *60:10 0.0017375
20 *27:16 *63:24 0.000563221
21 *27:16 *70:14 0.000747378
22 *27:20 *65:22 0.000243538
23 *27:20 *155:36 0.000138859
24 *27:20 *216:87 0.000479582
25 *27:26 *792:C 3.84051e-05
26 *27:26 *930:RESET_B 0
27 *27:26 *951:A 4.96982e-05
28 *27:26 *65:22 1.24585e-05
29 *27:26 *105:10 8.33871e-05
30 *27:26 *134:92 0
31 *27:26 *220:101 0.00111278
32 *27:26 *222:60 0
33 *23:20 *27:26 0.00126958
34 *26:36 *27:14 4.68487e-05
*RES
1 *834:X *27:8 47.4768 
2 *27:8 *27:14 20.6928 
3 *27:14 *27:16 41.1696 
4 *27:16 *27:20 38.9664 
5 *27:20 *27:26 49.865 
6 *27:26 *930:D 25.5479 
*END

*D_NET *28 0.0119067
*CONN
*I *931:D I *D sky130_fd_sc_hd__dfrtp_4
*I *836:Y O *D sky130_fd_sc_hd__nor2_1
*CAP
1 *931:D 0
2 *836:Y 0.00137086
3 *28:22 0.000849882
4 *28:16 0.00203638
5 *28:12 0.00255735
6 *28:12 *92:8 0.00040183
7 *28:12 *151:22 6.43401e-05
8 *28:12 *187:14 0.000709702