* NGSPICE file created from ZeroToFiveCounter.ext - technology: sky130A

* Black-box entry subcircuit for sky130_fd_sc_hd__decap_6 abstract view
.subckt sky130_fd_sc_hd__decap_6 VGND VNB VPB VPWR
.ends

* Black-box entry subcircuit for sky130_fd_sc_hd__a21boi_2 abstract view
.subckt sky130_fd_sc_hd__a21boi_2 A1 A2 B1_N VGND VNB VPB VPWR Y
.ends

* Black-box entry subcircuit for sky130_fd_sc_hd__tapvpwrvgnd_1 abstract view
.subckt sky130_fd_sc_hd__tapvpwrvgnd_1 VGND VPWR
.ends

* Black-box entry subcircuit for sky130_fd_sc_hd__dfrtp_4 abstract view
.subckt sky130_fd_sc_hd__dfrtp_4 CLK D RESET_B VGND VNB VPB VPWR Q
.ends

* Black-box entry subcircuit for sky130_fd_sc_hd__and3_2 abstract view
.subckt sky130_fd_sc_hd__and3_2 A B C VGND VNB VPB VPWR X
.ends

* Black-box entry subcircuit for sky130_fd_sc_hd__and3b_1 abstract view
.subckt sky130_fd_sc_hd__and3b_1 A_N B C VGND VNB VPB VPWR X
.ends

* Black-box entry subcircuit for sky130_fd_sc_hd__inv_2 abstract view
.subckt sky130_fd_sc_hd__inv_2 A VGND VNB VPB VPWR Y
.ends

* Black-box entry subcircuit for sky130_fd_sc_hd__decap_8 abstract view
.subckt sky130_fd_sc_hd__decap_8 VGND VNB VPB VPWR
.ends

* Black-box entry subcircuit for sky130_ef_sc_hd__decap_12 abstract view
.subckt sky130_ef_sc_hd__decap_12 VPWR VGND VPB VNB
.ends

* Black-box entry subcircuit for sky130_fd_sc_hd__decap_3 abstract view
.subckt sky130_fd_sc_hd__decap_3 VGND VNB VPB VPWR
.ends

* Black-box entry subcircuit for sky130_fd_sc_hd__decap_4 abstract view
.subckt sky130_fd_sc_hd__decap_4 VGND VNB VPB VPWR
.ends

* Black-box entry subcircuit for sky130_fd_sc_hd__diode_2 abstract view
.subckt sky130_fd_sc_hd__diode_2 DIODE VGND VNB VPB VPWR
.ends

* Black-box entry subcircuit for sky130_fd_sc_hd__fill_1 abstract view
.subckt sky130_fd_sc_hd__fill_1 VGND VNB VPB VPWR
.ends

* Black-box entry subcircuit for sky130_fd_sc_hd__buf_1 abstract view
.subckt sky130_fd_sc_hd__buf_1 A VGND VNB VPB VPWR X
.ends

* Black-box entry subcircuit for sky130_fd_sc_hd__a21oi_1 abstract view
.subckt sky130_fd_sc_hd__a21oi_1 A1 A2 B1 VGND VNB VPB VPWR Y
.ends

* Black-box entry subcircuit for sky130_fd_sc_hd__dfrtp_1 abstract view
.subckt sky130_fd_sc_hd__dfrtp_1 CLK D RESET_B VGND VNB VPB VPWR Q
.ends

* Black-box entry subcircuit for sky130_fd_sc_hd__fill_2 abstract view
.subckt sky130_fd_sc_hd__fill_2 VGND VNB VPB VPWR
.ends

* Black-box entry subcircuit for sky130_fd_sc_hd__or3_1 abstract view
.subckt sky130_fd_sc_hd__or3_1 A B C VGND VNB VPB VPWR X
.ends

* Black-box entry subcircuit for sky130_fd_sc_hd__a221oi_2 abstract view
.subckt sky130_fd_sc_hd__a221oi_2 A1 A2 B1 B2 C1 VGND VNB VPB VPWR Y
.ends

* Black-box entry subcircuit for sky130_fd_sc_hd__clkbuf_4 abstract view
.subckt sky130_fd_sc_hd__clkbuf_4 A VGND VNB VPB VPWR X
.ends

* Black-box entry subcircuit for sky130_fd_sc_hd__and2_1 abstract view
.subckt sky130_fd_sc_hd__and2_1 A B VGND VNB VPB VPWR X
.ends

* Black-box entry subcircuit for sky130_fd_sc_hd__clkbuf_1 abstract view
.subckt sky130_fd_sc_hd__clkbuf_1 A VGND VNB VPB VPWR X
.ends

* Black-box entry subcircuit for sky130_fd_sc_hd__and4_1 abstract view
.subckt sky130_fd_sc_hd__and4_1 A B C D VGND VNB VPB VPWR X
.ends

* Black-box entry subcircuit for sky130_fd_sc_hd__dfrtp_2 abstract view
.subckt sky130_fd_sc_hd__dfrtp_2 CLK D RESET_B VGND VNB VPB VPWR Q
.ends

* Black-box entry subcircuit for sky130_fd_sc_hd__a21bo_2 abstract view
.subckt sky130_fd_sc_hd__a21bo_2 A1 A2 B1_N VGND VNB VPB VPWR X
.ends

* Black-box entry subcircuit for sky130_fd_sc_hd__a41o_1 abstract view
.subckt sky130_fd_sc_hd__a41o_1 A1 A2 A3 A4 B1 VGND VNB VPB VPWR X
.ends

* Black-box entry subcircuit for sky130_fd_sc_hd__bufinv_16 abstract view
.subckt sky130_fd_sc_hd__bufinv_16 A VGND VNB VPB VPWR Y
.ends

* Black-box entry subcircuit for sky130_fd_sc_hd__nand2_1 abstract view
.subckt sky130_fd_sc_hd__nand2_1 A B VGND VNB VPB VPWR Y
.ends

* Black-box entry subcircuit for sky130_fd_sc_hd__o211ai_2 abstract view
.subckt sky130_fd_sc_hd__o211ai_2 A1 A2 B1 C1 VGND VNB VPB VPWR Y
.ends

* Black-box entry subcircuit for sky130_fd_sc_hd__o211a_1 abstract view
.subckt sky130_fd_sc_hd__o211a_1 A1 A2 B1 C1 VGND VNB VPB VPWR X
.ends

* Black-box entry subcircuit for sky130_fd_sc_hd__clkinvlp_4 abstract view
.subckt sky130_fd_sc_hd__clkinvlp_4 A VGND VNB VPB VPWR Y
.ends

* Black-box entry subcircuit for sky130_fd_sc_hd__and3_1 abstract view
.subckt sky130_fd_sc_hd__and3_1 A B C VGND VNB VPB VPWR X
.ends

* Black-box entry subcircuit for sky130_fd_sc_hd__a31o_1 abstract view
.subckt sky130_fd_sc_hd__a31o_1 A1 A2 A3 B1 VGND VNB VPB VPWR X
.ends

* Black-box entry subcircuit for sky130_fd_sc_hd__clkinv_2 abstract view
.subckt sky130_fd_sc_hd__clkinv_2 A VGND VNB VPB VPWR Y
.ends

* Black-box entry subcircuit for sky130_fd_sc_hd__buf_4 abstract view
.subckt sky130_fd_sc_hd__buf_4 A VGND VNB VPB VPWR X
.ends

* Black-box entry subcircuit for sky130_fd_sc_hd__o2bb2a_1 abstract view
.subckt sky130_fd_sc_hd__o2bb2a_1 A1_N A2_N B1 B2 VGND VNB VPB VPWR X
.ends

* Black-box entry subcircuit for sky130_fd_sc_hd__o31a_1 abstract view
.subckt sky130_fd_sc_hd__o31a_1 A1 A2 A3 B1 VGND VNB VPB VPWR X
.ends

* Black-box entry subcircuit for sky130_fd_sc_hd__nor2_1 abstract view
.subckt sky130_fd_sc_hd__nor2_1 A B VGND VNB VPB VPWR Y
.ends

* Black-box entry subcircuit for sky130_fd_sc_hd__clkbuf_16 abstract view
.subckt sky130_fd_sc_hd__clkbuf_16 A VGND VNB VPB VPWR X
.ends

* Black-box entry subcircuit for sky130_fd_sc_hd__and4b_1 abstract view
.subckt sky130_fd_sc_hd__and4b_1 A_N B C D VGND VNB VPB VPWR X
.ends

* Black-box entry subcircuit for sky130_fd_sc_hd__nand3_1 abstract view
.subckt sky130_fd_sc_hd__nand3_1 A B C VGND VNB VPB VPWR Y
.ends

* Black-box entry subcircuit for sky130_fd_sc_hd__xor2_1 abstract view
.subckt sky130_fd_sc_hd__xor2_1 A B VGND VNB VPB VPWR X
.ends

* Black-box entry subcircuit for sky130_fd_sc_hd__a21o_1 abstract view
.subckt sky130_fd_sc_hd__a21o_1 A1 A2 B1 VGND VNB VPB VPWR X
.ends

* Black-box entry subcircuit for sky130_fd_sc_hd__or4_1 abstract view
.subckt sky130_fd_sc_hd__or4_1 A B C D VGND VNB VPB VPWR X
.ends

* Black-box entry subcircuit for sky130_fd_sc_hd__xnor2_1 abstract view
.subckt sky130_fd_sc_hd__xnor2_1 A B VGND VNB VPB VPWR Y
.ends

* Black-box entry subcircuit for sky130_fd_sc_hd__or2_1 abstract view
.subckt sky130_fd_sc_hd__or2_1 A B VGND VNB VPB VPWR X
.ends

* Black-box entry subcircuit for sky130_fd_sc_hd__a211oi_1 abstract view
.subckt sky130_fd_sc_hd__a211oi_1 A1 A2 B1 C1 VGND VNB VPB VPWR Y
.ends

* Black-box entry subcircuit for sky130_fd_sc_hd__clkbuf_2 abstract view
.subckt sky130_fd_sc_hd__clkbuf_2 A VGND VNB VPB VPWR X
.ends

* Black-box entry subcircuit for sky130_fd_sc_hd__a2111o_1 abstract view
.subckt sky130_fd_sc_hd__a2111o_1 A1 A2 B1 C1 D1 VGND VNB VPB VPWR X
.ends

* Black-box entry subcircuit for sky130_fd_sc_hd__nor2_2 abstract view
.subckt sky130_fd_sc_hd__nor2_2 A B VGND VNB VPB VPWR Y
.ends

* Black-box entry subcircuit for sky130_fd_sc_hd__and4_2 abstract view
.subckt sky130_fd_sc_hd__and4_2 A B C D VGND VNB VPB VPWR X
.ends

* Black-box entry subcircuit for sky130_fd_sc_hd__nor3_1 abstract view
.subckt sky130_fd_sc_hd__nor3_1 A B C VGND VNB VPB VPWR Y
.ends

* Black-box entry subcircuit for sky130_fd_sc_hd__conb_1 abstract view
.subckt sky130_fd_sc_hd__conb_1 VGND VNB VPB VPWR HI LO
.ends

* Black-box entry subcircuit for sky130_fd_sc_hd__buf_2 abstract view
.subckt sky130_fd_sc_hd__buf_2 A VGND VNB VPB VPWR X
.ends

.subckt ZeroToFiveCounter VGND VPWR an[0] an[1] an[2] an[3] an[4] an[5] an[6] an[7]
+ clk rst seg[0] seg[1] seg[2] seg[3] seg[4] seg[5] seg[6]
XFILLER_0_7_81 VGND VGND VPWR VPWR sky130_fd_sc_hd__decap_6
X_294_ decoder.digit\[1\] _155_ _067_ VGND VGND VPWR VPWR net8 sky130_fd_sc_hd__a21boi_2
XTAP_TAPCELL_ROW_21_109 VGND VPWR sky130_fd_sc_hd__tapvpwrvgnd_1
X_346_ clknet_2_3__leaf_clk _007_ _044_ VGND VGND VPWR VPWR one_second_counter\[16\]
+ sky130_fd_sc_hd__dfrtp_4
X_277_ one_second_counter\[24\] _127_ _148_ VGND VGND VPWR VPWR _150_ sky130_fd_sc_hd__and3_2
X_200_ _075_ _085_ _093_ VGND VGND VPWR VPWR _094_ sky130_fd_sc_hd__and3b_1
X_329_ net1 VGND VGND VPWR VPWR _059_ sky130_fd_sc_hd__inv_2
XFILLER_0_10_74 VGND VGND VPWR VPWR sky130_fd_sc_hd__decap_8
XFILLER_0_31_29 VPWR VGND VPWR VGND sky130_ef_sc_hd__decap_12
XFILLER_0_31_18 VGND VGND VPWR VPWR sky130_fd_sc_hd__decap_3
XFILLER_0_16_117 VGND VGND VPWR VPWR sky130_fd_sc_hd__decap_4
XFILLER_0_26_29 VPWR VGND VPWR VGND sky130_ef_sc_hd__decap_12
XFILLER_0_22_109 VPWR VGND VPWR VGND sky130_ef_sc_hd__decap_12
XPHY_EDGE_ROW_16_Left_48 VGND VGND VPWR VPWR sky130_fd_sc_hd__decap_3
XANTENNA_5 net8 VGND VGND VPWR VPWR sky130_fd_sc_hd__diode_2
XFILLER_0_5_117 VGND VGND VPWR VPWR sky130_fd_sc_hd__fill_1
Xoutput7 net7 VGND VGND VPWR VPWR seg[5] sky130_fd_sc_hd__buf_1
XFILLER_0_7_93 VPWR VGND VPWR VGND sky130_ef_sc_hd__decap_12
X_293_ _158_ VGND VGND VPWR VPWR net7 sky130_fd_sc_hd__buf_1
XFILLER_0_23_19 VGND VGND VPWR VPWR sky130_fd_sc_hd__decap_8
XPHY_EDGE_ROW_19_Left_51 VGND VGND VPWR VPWR sky130_fd_sc_hd__decap_3
X_276_ _127_ _148_ one_second_counter\[24\] VGND VGND VPWR VPWR _149_ sky130_fd_sc_hd__a21oi_1
X_345_ clknet_2_1__leaf_clk _006_ _043_ VGND VGND VPWR VPWR one_second_counter\[15\]
+ sky130_fd_sc_hd__dfrtp_1
XPHY_EDGE_ROW_21_Right_21 VGND VGND VPWR VPWR sky130_fd_sc_hd__decap_3
XPHY_EDGE_ROW_4_Left_36 VGND VGND VPWR VPWR sky130_fd_sc_hd__decap_3
XPHY_EDGE_ROW_12_Right_12 VGND VGND VPWR VPWR sky130_fd_sc_hd__decap_3
XPHY_EDGE_ROW_30_Right_30 VGND VGND VPWR VPWR sky130_fd_sc_hd__decap_3
X_259_ _136_ VGND VGND VPWR VPWR _137_ sky130_fd_sc_hd__inv_2
XFILLER_0_10_20 VGND VGND VPWR VPWR sky130_fd_sc_hd__decap_4
X_328_ net1 VGND VGND VPWR VPWR _058_ sky130_fd_sc_hd__inv_2
XFILLER_0_26_19 VGND VGND VPWR VPWR sky130_fd_sc_hd__fill_1
XFILLER_0_27_3 VGND VGND VPWR VPWR sky130_fd_sc_hd__fill_2
XANTENNA_6 _000_ VGND VGND VPWR VPWR sky130_fd_sc_hd__diode_2
XFILLER_0_6_29 VPWR VGND VPWR VGND sky130_ef_sc_hd__decap_12
XPHY_EDGE_ROW_6_Right_6 VGND VGND VPWR VPWR sky130_fd_sc_hd__decap_3
Xoutput8 net8 VGND VGND VPWR VPWR seg[6] sky130_fd_sc_hd__buf_1
X_361_ clknet_2_3__leaf_clk _063_ _059_ VGND VGND VPWR VPWR decoder.digit\[3\] sky130_fd_sc_hd__dfrtp_4
X_292_ decoder.digit\[3\] decoder.digit\[1\] _156_ VGND VGND VPWR VPWR _158_ sky130_fd_sc_hd__or3_1
XFILLER_0_0_6 VGND VGND VPWR VPWR sky130_fd_sc_hd__decap_8
X_344_ clknet_2_3__leaf_clk _005_ _042_ VGND VGND VPWR VPWR one_second_counter\[14\]
+ sky130_fd_sc_hd__dfrtp_1
X_275_ _147_ _145_ _148_ _127_ _027_ VGND VGND VPWR VPWR _015_ sky130_fd_sc_hd__a221oi_2
XFILLER_0_24_85 VPWR VGND VPWR VGND sky130_ef_sc_hd__decap_12
XFILLER_0_24_41 VGND VGND VPWR VPWR sky130_fd_sc_hd__fill_2
XPHY_EDGE_ROW_20_Left_52 VGND VGND VPWR VPWR sky130_fd_sc_hd__decap_3
X_189_ _086_ VGND VGND VPWR VPWR _027_ sky130_fd_sc_hd__clkbuf_4
XFILLER_0_19_116 VGND VGND VPWR VPWR sky130_fd_sc_hd__decap_8
XFILLER_0_19_41 VPWR VGND VPWR VGND sky130_ef_sc_hd__decap_12
X_327_ _161_ VGND VGND VPWR VPWR _057_ sky130_fd_sc_hd__inv_2
X_258_ _127_ _135_ VGND VGND VPWR VPWR _136_ sky130_fd_sc_hd__and2_1
XFILLER_0_25_108 VGND VGND VPWR VPWR sky130_fd_sc_hd__fill_1
XFILLER_0_1_41 VGND VGND VPWR VPWR sky130_fd_sc_hd__decap_6
XFILLER_0_21_111 VGND VGND VPWR VPWR sky130_fd_sc_hd__fill_1
XFILLER_0_8_105 VPWR VGND VPWR VGND sky130_ef_sc_hd__decap_12
XFILLER_0_9_3 VGND VGND VPWR VPWR sky130_fd_sc_hd__fill_2
X_360_ clknet_2_0__leaf_clk _062_ _058_ VGND VGND VPWR VPWR decoder.digit\[2\] sky130_fd_sc_hd__dfrtp_4
XFILLER_0_7_40 VPWR VGND VPWR VGND sky130_ef_sc_hd__decap_12
X_291_ _157_ VGND VGND VPWR VPWR net6 sky130_fd_sc_hd__clkbuf_1
X_343_ clknet_2_1__leaf_clk _004_ _041_ VGND VGND VPWR VPWR one_second_counter\[13\]
+ sky130_fd_sc_hd__dfrtp_1
X_274_ _083_ _135_ VGND VGND VPWR VPWR _148_ sky130_fd_sc_hd__and2_1
XFILLER_0_24_97 VGND VGND VPWR VPWR sky130_fd_sc_hd__fill_2
XFILLER_0_4_85 VPWR VGND VPWR VGND sky130_ef_sc_hd__decap_12
X_257_ one_second_counter\[19\] one_second_counter\[18\] one_second_counter\[17\]
+ one_second_counter\[16\] VGND VGND VPWR VPWR _135_ sky130_fd_sc_hd__and4_1
X_188_ _085_ VGND VGND VPWR VPWR _086_ sky130_fd_sc_hd__inv_2
XFILLER_0_19_64 VGND VGND VPWR VPWR sky130_fd_sc_hd__fill_2
XFILLER_0_19_53 VGND VGND VPWR VPWR sky130_fd_sc_hd__decap_3
XFILLER_0_19_20 VGND VGND VPWR VPWR sky130_fd_sc_hd__fill_2
X_326_ _161_ VGND VGND VPWR VPWR _056_ sky130_fd_sc_hd__inv_2
X_309_ _160_ VGND VGND VPWR VPWR _040_ sky130_fd_sc_hd__inv_2
XFILLER_0_21_54 VGND VGND VPWR VPWR sky130_fd_sc_hd__fill_2
XFILLER_0_21_32 VPWR VGND VPWR VGND sky130_ef_sc_hd__decap_12
XFILLER_0_8_117 VGND VGND VPWR VPWR sky130_fd_sc_hd__decap_8
XFILLER_0_7_30 VGND VGND VPWR VPWR sky130_fd_sc_hd__fill_2
XFILLER_0_7_52 VGND VGND VPWR VPWR sky130_fd_sc_hd__decap_4
X_290_ decoder.digit\[3\] decoder.digit\[2\] decoder.digit\[0\] VGND VGND VPWR VPWR
+ _157_ sky130_fd_sc_hd__or3_1
XFILLER_0_13_11 VGND VGND VPWR VPWR sky130_fd_sc_hd__decap_3
XFILLER_0_13_44 VGND VGND VPWR VPWR sky130_fd_sc_hd__decap_6
X_273_ one_second_counter\[23\] VGND VGND VPWR VPWR _147_ sky130_fd_sc_hd__inv_2
X_342_ clknet_2_1__leaf_clk _003_ _040_ VGND VGND VPWR VPWR one_second_counter\[12\]
+ sky130_fd_sc_hd__dfrtp_2
XFILLER_0_24_10 VPWR VGND VPWR VGND sky130_ef_sc_hd__decap_12
XFILLER_0_4_97 VGND VGND VPWR VPWR sky130_fd_sc_hd__decap_3
X_187_ _073_ _084_ one_second_counter\[26\] VGND VGND VPWR VPWR _085_ sky130_fd_sc_hd__a21bo_2
X_325_ _161_ VGND VGND VPWR VPWR _055_ sky130_fd_sc_hd__inv_2
X_256_ one_second_counter\[18\] one_second_counter\[17\] one_second_counter\[16\]
+ _127_ one_second_counter\[19\] VGND VGND VPWR VPWR _134_ sky130_fd_sc_hd__a41o_1
Xclkload0 clknet_2_0__leaf_clk VGND VGND VPWR VPWR clkload0/Y sky130_fd_sc_hd__bufinv_16
XFILLER_0_21_44 VGND VGND VPWR VPWR sky130_fd_sc_hd__decap_3
X_239_ _121_ _119_ VGND VGND VPWR VPWR _122_ sky130_fd_sc_hd__nand2_1
X_308_ _160_ VGND VGND VPWR VPWR _039_ sky130_fd_sc_hd__inv_2
XFILLER_0_30_124 VGND VGND VPWR VPWR sky130_fd_sc_hd__fill_1
XFILLER_0_15_110 VGND VGND VPWR VPWR sky130_fd_sc_hd__fill_2
XFILLER_0_21_113 VPWR VGND VPWR VGND sky130_ef_sc_hd__decap_12
XFILLER_0_25_3 VPWR VGND VPWR VGND sky130_ef_sc_hd__decap_12
XPHY_EDGE_ROW_28_Right_28 VGND VGND VPWR VPWR sky130_fd_sc_hd__decap_3
XPHY_EDGE_ROW_19_Right_19 VGND VGND VPWR VPWR sky130_fd_sc_hd__decap_3
XFILLER_0_27_87 VPWR VGND VPWR VGND sky130_ef_sc_hd__decap_12
XFILLER_0_1_113 VGND VGND VPWR VPWR sky130_fd_sc_hd__fill_2
X_341_ clknet_2_2__leaf_clk _002_ _039_ VGND VGND VPWR VPWR one_second_counter\[11\]
+ sky130_fd_sc_hd__dfrtp_1
X_272_ _146_ VGND VGND VPWR VPWR _014_ sky130_fd_sc_hd__clkbuf_1
XFILLER_0_24_33 VGND VGND VPWR VPWR sky130_fd_sc_hd__fill_1
XFILLER_0_24_22 VGND VGND VPWR VPWR sky130_fd_sc_hd__decap_6
XFILLER_0_4_76 VGND VGND VPWR VPWR sky130_fd_sc_hd__fill_1
XPHY_EDGE_ROW_24_Left_56 VGND VGND VPWR VPWR sky130_fd_sc_hd__decap_3
X_186_ _074_ _082_ _083_ one_second_counter\[24\] VGND VGND VPWR VPWR _084_ sky130_fd_sc_hd__o211ai_2
X_324_ _161_ VGND VGND VPWR VPWR _054_ sky130_fd_sc_hd__inv_2
X_255_ _132_ _129_ _133_ _095_ VGND VGND VPWR VPWR _009_ sky130_fd_sc_hd__o211a_1
Xclkload1 clknet_2_1__leaf_clk VGND VGND VPWR VPWR clkload1/Y sky130_fd_sc_hd__clkinvlp_4
X_169_ _065_ _069_ VGND VGND VPWR VPWR _070_ sky130_fd_sc_hd__and2_1
XFILLER_0_1_55 VGND VGND VPWR VPWR sky130_fd_sc_hd__fill_1
X_307_ _160_ VGND VGND VPWR VPWR _038_ sky130_fd_sc_hd__inv_2
X_238_ one_second_counter\[14\] VGND VGND VPWR VPWR _121_ sky130_fd_sc_hd__inv_2
XFILLER_0_15_100 VGND VGND VPWR VPWR sky130_fd_sc_hd__fill_1
XFILLER_0_16_78 VGND VGND VPWR VPWR sky130_fd_sc_hd__fill_1
XPHY_EDGE_ROW_11_Left_43 VGND VGND VPWR VPWR sky130_fd_sc_hd__decap_3
XFILLER_0_27_99 VGND VGND VPWR VPWR sky130_fd_sc_hd__fill_1
XFILLER_0_27_55 VGND VGND VPWR VPWR sky130_fd_sc_hd__fill_1
XFILLER_0_27_11 VPWR VGND VPWR VGND sky130_ef_sc_hd__decap_12
XFILLER_0_7_10 VPWR VGND VPWR VGND sky130_ef_sc_hd__decap_12
XTAP_TAPCELL_ROW_23_112 VGND VPWR sky130_fd_sc_hd__tapvpwrvgnd_1
XFILLER_0_7_3 VGND VGND VPWR VPWR sky130_fd_sc_hd__decap_3
XTAP_TAPCELL_ROW_3_72 VGND VPWR sky130_fd_sc_hd__tapvpwrvgnd_1
XFILLER_0_24_45 VGND VGND VPWR VPWR sky130_fd_sc_hd__fill_2
X_340_ clknet_2_3__leaf_clk _001_ _038_ VGND VGND VPWR VPWR one_second_counter\[10\]
+ sky130_fd_sc_hd__dfrtp_2
X_271_ _085_ _144_ _145_ VGND VGND VPWR VPWR _146_ sky130_fd_sc_hd__and3_1
XFILLER_0_4_33 VGND VGND VPWR VPWR sky130_fd_sc_hd__fill_1
X_185_ one_second_counter\[23\] one_second_counter\[22\] one_second_counter\[20\]
+ one_second_counter\[21\] VGND VGND VPWR VPWR _083_ sky130_fd_sc_hd__and4_1
X_323_ _161_ VGND VGND VPWR VPWR _053_ sky130_fd_sc_hd__inv_2
X_254_ one_second_counter\[17\] one_second_counter\[16\] _127_ one_second_counter\[18\]
+ VGND VGND VPWR VPWR _133_ sky130_fd_sc_hd__a31o_1
XTAP_TAPCELL_ROW_13_92 VGND VPWR sky130_fd_sc_hd__tapvpwrvgnd_1
Xclkload2 clknet_2_2__leaf_clk VGND VGND VPWR VPWR clkload2/Y sky130_fd_sc_hd__clkinv_2
X_306_ net1 VGND VGND VPWR VPWR _160_ sky130_fd_sc_hd__buf_4
XFILLER_0_21_79 VGND VGND VPWR VPWR sky130_fd_sc_hd__decap_6
X_168_ one_second_enable _068_ _064_ decoder.digit\[2\] VGND VGND VPWR VPWR _069_
+ sky130_fd_sc_hd__o2bb2a_1
X_237_ _120_ VGND VGND VPWR VPWR _004_ sky130_fd_sc_hd__clkbuf_1
XFILLER_0_16_46 VGND VGND VPWR VPWR sky130_fd_sc_hd__decap_6
XPHY_EDGE_ROW_1_Right_1 VGND VGND VPWR VPWR sky130_fd_sc_hd__decap_3
XFILLER_0_7_120 VGND VGND VPWR VPWR sky130_fd_sc_hd__decap_4
XFILLER_0_27_23 VPWR VGND VPWR VGND sky130_ef_sc_hd__decap_12
XFILLER_0_30_3 VGND VGND VPWR VPWR sky130_fd_sc_hd__decap_3
XTAP_TAPCELL_ROW_23_113 VGND VPWR sky130_fd_sc_hd__tapvpwrvgnd_1
XFILLER_0_7_22 VGND VGND VPWR VPWR sky130_fd_sc_hd__decap_8
XFILLER_0_1_104 VGND VGND VPWR VPWR sky130_fd_sc_hd__decap_8
XTAP_TAPCELL_ROW_3_73 VGND VPWR sky130_fd_sc_hd__tapvpwrvgnd_1
X_270_ one_second_counter\[22\] _143_ VGND VGND VPWR VPWR _145_ sky130_fd_sc_hd__nand2_1
X_322_ _161_ VGND VGND VPWR VPWR _052_ sky130_fd_sc_hd__inv_2
XTAP_TAPCELL_ROW_13_93 VGND VPWR sky130_fd_sc_hd__tapvpwrvgnd_1
XFILLER_0_27_121 VGND VGND VPWR VPWR sky130_fd_sc_hd__fill_1
XFILLER_0_19_35 VGND VGND VPWR VPWR sky130_fd_sc_hd__fill_1
X_253_ one_second_counter\[18\] one_second_counter\[17\] VGND VGND VPWR VPWR _132_
+ sky130_fd_sc_hd__nand2_1
X_184_ one_second_counter\[8\] _077_ _079_ _081_ VGND VGND VPWR VPWR _082_ sky130_fd_sc_hd__o31a_1
XFILLER_0_10_37 VGND VGND VPWR VPWR sky130_fd_sc_hd__fill_1
X_167_ decoder.digit\[0\] _067_ VGND VGND VPWR VPWR _068_ sky130_fd_sc_hd__nor2_1
X_236_ _095_ _118_ _119_ VGND VGND VPWR VPWR _120_ sky130_fd_sc_hd__and3_1
X_305_ _159_ VGND VGND VPWR VPWR _037_ sky130_fd_sc_hd__inv_2
XFILLER_0_1_57 VPWR VGND VPWR VGND sky130_ef_sc_hd__decap_12
XFILLER_0_15_113 VPWR VGND VPWR VGND sky130_ef_sc_hd__decap_12
XFILLER_0_21_105 VGND VGND VPWR VPWR sky130_fd_sc_hd__decap_6
X_219_ _107_ VGND VGND VPWR VPWR _025_ sky130_fd_sc_hd__clkbuf_1
XFILLER_0_27_57 VGND VGND VPWR VPWR sky130_fd_sc_hd__fill_2
XFILLER_0_27_35 VPWR VGND VPWR VGND sky130_ef_sc_hd__decap_12
XTAP_TAPCELL_ROW_17_100 VGND VPWR sky130_fd_sc_hd__tapvpwrvgnd_1
Xclkbuf_0_clk clk VGND VGND VPWR VPWR clknet_0_clk sky130_fd_sc_hd__clkbuf_16
XPHY_EDGE_ROW_24_Right_24 VGND VGND VPWR VPWR sky130_fd_sc_hd__decap_3
XFILLER_0_23_3 VGND VGND VPWR VPWR sky130_fd_sc_hd__decap_3
XPHY_EDGE_ROW_15_Right_15 VGND VGND VPWR VPWR sky130_fd_sc_hd__decap_3
XFILLER_0_4_124 VGND VGND VPWR VPWR sky130_fd_sc_hd__fill_1
XFILLER_0_13_37 VGND VGND VPWR VPWR sky130_fd_sc_hd__fill_2
XTAP_TAPCELL_ROW_20_106 VGND VPWR sky130_fd_sc_hd__tapvpwrvgnd_1
XFILLER_0_4_46 VPWR VGND VPWR VGND sky130_ef_sc_hd__decap_12
X_252_ _027_ _131_ VGND VGND VPWR VPWR _008_ sky130_fd_sc_hd__nor2_1
X_321_ _161_ VGND VGND VPWR VPWR _051_ sky130_fd_sc_hd__inv_2
X_183_ one_second_counter\[17\] one_second_counter\[16\] _080_ one_second_counter\[18\]
+ VGND VGND VPWR VPWR _081_ sky130_fd_sc_hd__and4b_1
XTAP_TAPCELL_ROW_0_64 VGND VPWR sky130_fd_sc_hd__tapvpwrvgnd_1
XTAP_TAPCELL_ROW_9_84 VGND VPWR sky130_fd_sc_hd__tapvpwrvgnd_1
XFILLER_0_10_27 VGND VGND VPWR VPWR sky130_fd_sc_hd__fill_1
XFILLER_0_27_111 VGND VGND VPWR VPWR sky130_fd_sc_hd__fill_1
XFILLER_0_18_122 VGND VGND VPWR VPWR sky130_fd_sc_hd__decap_3
X_235_ one_second_counter\[12\] one_second_counter\[13\] _114_ VGND VGND VPWR VPWR
+ _119_ sky130_fd_sc_hd__nand3_1
X_304_ _159_ VGND VGND VPWR VPWR _036_ sky130_fd_sc_hd__inv_2
XFILLER_0_1_69 VGND VGND VPWR VPWR sky130_fd_sc_hd__decap_6
X_166_ decoder.digit\[2\] _066_ VGND VGND VPWR VPWR _067_ sky130_fd_sc_hd__nand2_1
X_218_ _105_ _085_ _106_ VGND VGND VPWR VPWR _107_ sky130_fd_sc_hd__and3_1
XFILLER_0_7_111 VGND VGND VPWR VPWR sky130_fd_sc_hd__fill_1
XFILLER_0_27_47 VGND VGND VPWR VPWR sky130_fd_sc_hd__decap_8
XTAP_TAPCELL_ROW_17_101 VGND VPWR sky130_fd_sc_hd__tapvpwrvgnd_1
XFILLER_0_7_57 VPWR VGND VPWR VGND sky130_ef_sc_hd__decap_12
XPHY_EDGE_ROW_15_Left_47 VGND VGND VPWR VPWR sky130_fd_sc_hd__decap_3
XTAP_TAPCELL_ROW_20_107 VGND VPWR sky130_fd_sc_hd__tapvpwrvgnd_1
XFILLER_0_1_117 VGND VGND VPWR VPWR sky130_fd_sc_hd__fill_2
XFILLER_0_5_3 VGND VGND VPWR VPWR sky130_fd_sc_hd__fill_2
Xclkbuf_2_0__f_clk clknet_0_clk VGND VGND VPWR VPWR clknet_2_0__leaf_clk sky130_fd_sc_hd__clkbuf_16
XPHY_EDGE_ROW_18_Left_50 VGND VGND VPWR VPWR sky130_fd_sc_hd__decap_3
XFILLER_0_4_58 VPWR VGND VPWR VGND sky130_ef_sc_hd__decap_12
X_251_ one_second_counter\[17\] _129_ VGND VGND VPWR VPWR _131_ sky130_fd_sc_hd__xor2_1
XTAP_TAPCELL_ROW_0_65 VGND VPWR sky130_fd_sc_hd__tapvpwrvgnd_1
X_182_ one_second_counter\[19\] one_second_counter\[13\] one_second_counter\[14\]
+ one_second_counter\[15\] VGND VGND VPWR VPWR _080_ sky130_fd_sc_hd__and4b_1
X_320_ _161_ VGND VGND VPWR VPWR _050_ sky130_fd_sc_hd__inv_2
XTAP_TAPCELL_ROW_9_85 VGND VPWR sky130_fd_sc_hd__tapvpwrvgnd_1
XPHY_EDGE_ROW_3_Left_35 VGND VGND VPWR VPWR sky130_fd_sc_hd__decap_3
X_165_ decoder.digit\[3\] decoder.digit\[1\] VGND VGND VPWR VPWR _066_ sky130_fd_sc_hd__nor2_1
X_234_ one_second_counter\[12\] _114_ one_second_counter\[13\] VGND VGND VPWR VPWR
+ _118_ sky130_fd_sc_hd__a21o_1
XFILLER_0_1_15 VGND VGND VPWR VPWR sky130_fd_sc_hd__decap_3
X_303_ _159_ VGND VGND VPWR VPWR _035_ sky130_fd_sc_hd__inv_2
X_217_ one_second_counter\[8\] _077_ VGND VGND VPWR VPWR _106_ sky130_fd_sc_hd__nand2_1
XFILLER_0_12_107 VPWR VGND VPWR VGND sky130_ef_sc_hd__decap_12
XFILLER_0_7_69 VPWR VGND VPWR VGND sky130_ef_sc_hd__decap_12
XPHY_EDGE_ROW_5_Right_5 VGND VGND VPWR VPWR sky130_fd_sc_hd__decap_3
XFILLER_0_4_26 VGND VGND VPWR VPWR sky130_fd_sc_hd__fill_2
XFILLER_0_14_93 VPWR VGND VPWR VGND sky130_ef_sc_hd__decap_12
XFILLER_0_19_27 VGND VGND VPWR VPWR sky130_fd_sc_hd__decap_8
XFILLER_0_19_16 VGND VGND VPWR VPWR sky130_fd_sc_hd__fill_2
X_250_ _130_ VGND VGND VPWR VPWR _007_ sky130_fd_sc_hd__buf_1
XFILLER_0_10_29 VGND VGND VPWR VPWR sky130_fd_sc_hd__decap_8
X_181_ one_second_counter\[11\] one_second_counter\[10\] one_second_counter\[9\] _078_
+ VGND VGND VPWR VPWR _079_ sky130_fd_sc_hd__or4_1
XFILLER_0_27_113 VGND VGND VPWR VPWR sky130_fd_sc_hd__decap_8
XTAP_TAPCELL_ROW_0_66 VGND VPWR sky130_fd_sc_hd__tapvpwrvgnd_1
XFILLER_0_25_81 VPWR VGND VPWR VGND sky130_ef_sc_hd__decap_12
X_164_ decoder.digit\[3\] _065_ VGND VGND VPWR VPWR _063_ sky130_fd_sc_hd__xnor2_1
X_233_ _117_ VGND VGND VPWR VPWR _003_ sky130_fd_sc_hd__clkbuf_1
X_302_ _159_ VGND VGND VPWR VPWR _034_ sky130_fd_sc_hd__inv_2
XTAP_TAPCELL_ROW_10_86 VGND VPWR sky130_fd_sc_hd__tapvpwrvgnd_1
XFILLER_0_16_39 VGND VGND VPWR VPWR sky130_fd_sc_hd__decap_4
XFILLER_0_22_71 VPWR VGND VPWR VGND sky130_ef_sc_hd__decap_12
X_216_ one_second_counter\[8\] _077_ VGND VGND VPWR VPWR _105_ sky130_fd_sc_hd__or2_1
XFILLER_0_7_113 VGND VGND VPWR VPWR sky130_fd_sc_hd__fill_2
XFILLER_0_7_124 VGND VGND VPWR VPWR sky130_fd_sc_hd__fill_1
XFILLER_0_12_119 VGND VGND VPWR VPWR sky130_fd_sc_hd__decap_6
XPHY_EDGE_ROW_20_Right_20 VGND VGND VPWR VPWR sky130_fd_sc_hd__decap_3
XPHY_EDGE_ROW_11_Right_11 VGND VGND VPWR VPWR sky130_fd_sc_hd__decap_3
XFILLER_0_30_93 VGND VGND VPWR VPWR sky130_fd_sc_hd__fill_1
XFILLER_0_30_60 VPWR VGND VPWR VGND sky130_ef_sc_hd__decap_12
X_180_ one_second_counter\[15\] one_second_counter\[14\] one_second_counter\[12\]
+ one_second_counter\[13\] VGND VGND VPWR VPWR _078_ sky130_fd_sc_hd__and4_1
XFILLER_0_27_103 VGND VGND VPWR VPWR sky130_fd_sc_hd__decap_8
XTAP_TAPCELL_ROW_0_67 VGND VPWR sky130_fd_sc_hd__tapvpwrvgnd_1
XFILLER_0_25_93 VGND VGND VPWR VPWR sky130_fd_sc_hd__fill_1
XFILLER_0_18_114 VGND VGND VPWR VPWR sky130_fd_sc_hd__decap_8
X_163_ decoder.digit\[2\] _064_ VGND VGND VPWR VPWR _065_ sky130_fd_sc_hd__nand2_1
XFILLER_0_21_18 VGND VGND VPWR VPWR sky130_fd_sc_hd__decap_6
X_301_ _159_ VGND VGND VPWR VPWR _033_ sky130_fd_sc_hd__inv_2
XFILLER_0_5_81 VPWR VGND VPWR VGND sky130_ef_sc_hd__decap_12
X_232_ _095_ _115_ _116_ VGND VGND VPWR VPWR _117_ sky130_fd_sc_hd__and3_1
XFILLER_0_30_109 VPWR VGND VPWR VGND sky130_ef_sc_hd__decap_12
XTAP_TAPCELL_ROW_10_87 VGND VPWR sky130_fd_sc_hd__tapvpwrvgnd_1
XFILLER_0_15_106 VGND VGND VPWR VPWR sky130_fd_sc_hd__fill_1
XFILLER_0_16_29 VGND VGND VPWR VPWR sky130_fd_sc_hd__fill_1
X_215_ _104_ _102_ _086_ _077_ VGND VGND VPWR VPWR _024_ sky130_fd_sc_hd__a211oi_1
XFILLER_0_22_83 VGND VGND VPWR VPWR sky130_fd_sc_hd__fill_1
XFILLER_0_2_71 VPWR VGND VPWR VGND sky130_ef_sc_hd__decap_12
XFILLER_0_24_29 VGND VGND VPWR VPWR sky130_fd_sc_hd__decap_4
XFILLER_0_4_39 VGND VGND VPWR VPWR sky130_fd_sc_hd__fill_2
XFILLER_0_30_72 VPWR VGND VPWR VGND sky130_ef_sc_hd__decap_12
XFILLER_0_3_3 VPWR VGND VPWR VGND sky130_ef_sc_hd__decap_12
X_231_ one_second_counter\[12\] _114_ VGND VGND VPWR VPWR _116_ sky130_fd_sc_hd__nand2_1
X_162_ one_second_enable decoder.digit\[1\] decoder.digit\[0\] VGND VGND VPWR VPWR
+ _064_ sky130_fd_sc_hd__and3_1
X_300_ _159_ VGND VGND VPWR VPWR _032_ sky130_fd_sc_hd__inv_2
XFILLER_0_5_93 VGND VGND VPWR VPWR sky130_fd_sc_hd__fill_2
Xinput1 rst VGND VGND VPWR VPWR net1 sky130_fd_sc_hd__clkbuf_2
XPHY_EDGE_ROW_7_Left_39 VGND VGND VPWR VPWR sky130_fd_sc_hd__decap_3
XTAP_TAPCELL_ROW_29_124 VGND VPWR sky130_fd_sc_hd__tapvpwrvgnd_1
X_214_ one_second_counter\[7\] VGND VGND VPWR VPWR _104_ sky130_fd_sc_hd__inv_2
XTAP_TAPCELL_ROW_6_78 VGND VPWR sky130_fd_sc_hd__tapvpwrvgnd_1
XFILLER_0_2_83 VGND VGND VPWR VPWR sky130_fd_sc_hd__fill_1
XTAP_TAPCELL_ROW_31_130 VGND VPWR sky130_fd_sc_hd__tapvpwrvgnd_1
XTAP_TAPCELL_ROW_16_98 VGND VPWR sky130_fd_sc_hd__tapvpwrvgnd_1
XPHY_EDGE_ROW_9_Right_9 VGND VGND VPWR VPWR sky130_fd_sc_hd__decap_3
XFILLER_0_4_29 VGND VGND VPWR VPWR sky130_fd_sc_hd__fill_2
XFILLER_0_14_85 VGND VGND VPWR VPWR sky130_fd_sc_hd__decap_4
XFILLER_0_24_119 VGND VGND VPWR VPWR sky130_fd_sc_hd__decap_6
X_230_ one_second_counter\[12\] _114_ VGND VGND VPWR VPWR _115_ sky130_fd_sc_hd__or2_1
XFILLER_0_5_50 VGND VGND VPWR VPWR sky130_fd_sc_hd__fill_1
XPHY_EDGE_ROW_23_Left_55 VGND VGND VPWR VPWR sky130_fd_sc_hd__decap_3
X_359_ clknet_2_0__leaf_clk _061_ _057_ VGND VGND VPWR VPWR decoder.digit\[1\] sky130_fd_sc_hd__dfrtp_4
XTAP_TAPCELL_ROW_29_125 VGND VPWR sky130_fd_sc_hd__tapvpwrvgnd_1
XTAP_TAPCELL_ROW_6_79 VGND VPWR sky130_fd_sc_hd__tapvpwrvgnd_1
X_213_ _103_ VGND VGND VPWR VPWR _023_ sky130_fd_sc_hd__clkbuf_1
XFILLER_0_22_85 VPWR VGND VPWR VGND sky130_ef_sc_hd__decap_12
XFILLER_0_7_105 VGND VGND VPWR VPWR sky130_fd_sc_hd__decap_6
XTAP_TAPCELL_ROW_31_131 VGND VPWR sky130_fd_sc_hd__tapvpwrvgnd_1
XTAP_TAPCELL_ROW_16_99 VGND VPWR sky130_fd_sc_hd__tapvpwrvgnd_1
XPHY_EDGE_ROW_10_Left_42 VGND VGND VPWR VPWR sky130_fd_sc_hd__decap_3
XFILLER_0_21_6 VPWR VGND VPWR VGND sky130_ef_sc_hd__decap_12
XFILLER_0_8_83 VGND VGND VPWR VPWR sky130_fd_sc_hd__fill_1
XFILLER_0_5_8 VPWR VGND VPWR VGND sky130_ef_sc_hd__decap_12
XFILLER_0_30_85 VGND VGND VPWR VPWR sky130_fd_sc_hd__decap_8
XFILLER_0_14_20 VGND VGND VPWR VPWR sky130_fd_sc_hd__decap_8
XFILLER_0_25_41 VGND VGND VPWR VPWR sky130_fd_sc_hd__fill_2
X_358_ clknet_2_2__leaf_clk _060_ _056_ VGND VGND VPWR VPWR decoder.digit\[0\] sky130_fd_sc_hd__dfrtp_4
XPHY_EDGE_ROW_27_Right_27 VGND VGND VPWR VPWR sky130_fd_sc_hd__decap_3
XPHY_EDGE_ROW_18_Right_18 VGND VGND VPWR VPWR sky130_fd_sc_hd__decap_3
X_289_ decoder.digit\[0\] _155_ _066_ VGND VGND VPWR VPWR net4 sky130_fd_sc_hd__a21oi_1
XFILLER_0_11_76 VPWR VGND VPWR VGND sky130_ef_sc_hd__decap_12
X_212_ _095_ _101_ _102_ VGND VGND VPWR VPWR _103_ sky130_fd_sc_hd__and3_1
XFILLER_0_22_97 VPWR VGND VPWR VGND sky130_ef_sc_hd__decap_12
XTAP_TAPCELL_ROW_26_118 VGND VPWR sky130_fd_sc_hd__tapvpwrvgnd_1
XFILLER_0_2_85 VPWR VGND VPWR VGND sky130_ef_sc_hd__decap_12
XFILLER_0_17_31 VGND VGND VPWR VPWR sky130_fd_sc_hd__fill_2
XTAP_TAPCELL_ROW_22_110 VGND VPWR sky130_fd_sc_hd__tapvpwrvgnd_1
XPHY_EDGE_ROW_0_Right_0 VGND VGND VPWR VPWR sky130_fd_sc_hd__decap_3
XFILLER_0_28_41 VPWR VGND VPWR VGND sky130_ef_sc_hd__decap_12
XFILLER_0_14_6 VGND VGND VPWR VPWR sky130_fd_sc_hd__decap_8
XFILLER_0_8_62 VPWR VGND VPWR VGND sky130_ef_sc_hd__decap_12
XFILLER_0_30_97 VPWR VGND VPWR VGND sky130_ef_sc_hd__decap_12
XFILLER_0_14_43 VPWR VGND VPWR VGND sky130_ef_sc_hd__decap_12
XFILLER_0_12_3 VGND VGND VPWR VPWR sky130_fd_sc_hd__decap_4
XFILLER_0_1_3 VPWR VGND VPWR VGND sky130_ef_sc_hd__decap_12
X_357_ clknet_2_0__leaf_clk _027_ _055_ VGND VGND VPWR VPWR one_second_enable sky130_fd_sc_hd__dfrtp_2
XFILLER_0_11_55 VGND VGND VPWR VPWR sky130_fd_sc_hd__fill_1
Xclkbuf_2_1__f_clk clknet_0_clk VGND VGND VPWR VPWR clknet_2_1__leaf_clk sky130_fd_sc_hd__clkbuf_16
X_288_ _068_ _155_ VGND VGND VPWR VPWR net3 sky130_fd_sc_hd__nor2_1
X_211_ one_second_counter\[6\] _100_ VGND VGND VPWR VPWR _102_ sky130_fd_sc_hd__nand2_1
XTAP_TAPCELL_ROW_26_119 VGND VPWR sky130_fd_sc_hd__tapvpwrvgnd_1
XFILLER_0_2_42 VGND VGND VPWR VPWR sky130_fd_sc_hd__fill_1
XFILLER_0_3_110 VGND VGND VPWR VPWR sky130_fd_sc_hd__fill_2
XTAP_TAPCELL_ROW_7_80 VGND VPWR sky130_fd_sc_hd__tapvpwrvgnd_1
XTAP_TAPCELL_ROW_22_111 VGND VPWR sky130_fd_sc_hd__tapvpwrvgnd_1
XFILLER_0_28_53 VGND VGND VPWR VPWR sky130_fd_sc_hd__decap_8
XFILLER_0_14_55 VGND VGND VPWR VPWR sky130_fd_sc_hd__decap_4
XFILLER_0_5_20 VPWR VGND VPWR VGND sky130_ef_sc_hd__decap_12