*SPEF "ieee 1481-1999"
*DESIGN "first_project"
*DATE "17:12:01 Saturday April 26, 2025"
*VENDOR "The OpenROAD Project"
*PROGRAM "OpenROAD"
*VERSION "b16bda7e82721d10566ff7e2b68f1ff0be9f9e38"
*DESIGN_FLOW "NAME_SCOPE LOCAL" "PIN_CAP NONE"
*DIVIDER /
*DELIMITER :
*BUS_DELIMITER []
*T_UNIT 1 NS
*C_UNIT 1 PF
*R_UNIT 1 OHM
*L_UNIT 1 HENRY

*NAME_MAP
*3 in[0]
*4 in[1]
*5 in[2]
*6 in[3]
*7 in[4]
*8 in[5]
*9 in[6]
*10 in[7]
*11 out[0]
*12 out[1]
*13 out[2]
*14 out[3]
*15 out[4]
*16 out[5]
*17 out[6]
*18 out[7]
*19 _00_
*20 _01_
*21 _02_
*22 _03_
*23 _04_
*24 _05_
*25 _06_
*26 _07_
*27 _08_
*28 net1
*29 net10
*30 net11
*31 net12
*32 net13
*33 net14
*34 net15
*35 net16
*36 net2
*37 net3
*38 net4
*39 net5
*40 net6
*41 net7
*42 net8
*43 net9
*44 FILLER_0_0_15
*45 FILLER_0_0_27
*46 FILLER_0_0_29
*47 FILLER_0_0_37
*48 FILLER_0_0_6
*49 FILLER_0_10_18
*50 FILLER_0_10_26
*51 FILLER_0_10_29
*52 FILLER_0_10_41
*53 FILLER_0_10_6
*54 FILLER_0_11_18
*55 FILLER_0_11_24
*56 FILLER_0_11_36
*57 FILLER_0_11_6
*58 FILLER_0_12_13
*59 FILLER_0_12_25
*60 FILLER_0_12_32
*61 FILLER_0_1_18
*62 FILLER_0_1_23
*63 FILLER_0_1_35
*64 FILLER_0_1_47
*65 FILLER_0_1_6
*66 FILLER_0_2_15
*67 FILLER_0_2_27
*68 FILLER_0_2_29
*69 FILLER_0_2_3
*70 FILLER_0_2_41
*71 FILLER_0_2_47
*72 FILLER_0_3_11
*73 FILLER_0_3_23
*74 FILLER_0_3_3
*75 FILLER_0_3_35
*76 FILLER_0_3_40
*77 FILLER_0_4_15
*78 FILLER_0_4_27
*79 FILLER_0_4_29
*80 FILLER_0_4_3
*81 FILLER_0_4_41
*82 FILLER_0_4_47
*83 FILLER_0_5_10
*84 FILLER_0_5_18
*85 FILLER_0_5_30
*86 FILLER_0_5_6
*87 FILLER_0_6_15
*88 FILLER_0_6_27
*89 FILLER_0_6_29
*90 FILLER_0_6_3
*91 FILLER_0_6_33
*92 FILLER_0_6_37
*93 FILLER_0_6_45
*94 FILLER_0_7_18
*95 FILLER_0_7_30
*96 FILLER_0_7_43
*97 FILLER_0_7_47
*98 FILLER_0_7_6
*99 FILLER_0_8_15
*100 FILLER_0_8_27
*101 FILLER_0_8_3
*102 FILLER_0_8_36
*103 FILLER_0_9_15
*104 FILLER_0_9_27
*105 FILLER_0_9_3
*106 FILLER_0_9_39
*107 FILLER_0_9_47
*108 FILLER_0_9_9
*109 PHY_EDGE_ROW_0_Left_13
*110 PHY_EDGE_ROW_0_Right_0
*111 PHY_EDGE_ROW_10_Left_23
*112 PHY_EDGE_ROW_10_Right_10
*113 PHY_EDGE_ROW_11_Left_24
*114 PHY_EDGE_ROW_11_Right_11
*115 PHY_EDGE_ROW_12_Left_25
*116 PHY_EDGE_ROW_12_Right_12
*117 PHY_EDGE_ROW_1_Left_14
*118 PHY_EDGE_ROW_1_Right_1
*119 PHY_EDGE_ROW_2_Left_15
*120 PHY_EDGE_ROW_2_Right_2
*121 PHY_EDGE_ROW_3_Left_16
*122 PHY_EDGE_ROW_3_Right_3
*123 PHY_EDGE_ROW_4_Left_17
*124 PHY_EDGE_ROW_4_Right_4
*125 PHY_EDGE_ROW_5_Left_18
*126 PHY_EDGE_ROW_5_Right_5
*127 PHY_EDGE_ROW_6_Left_19
*128 PHY_EDGE_ROW_6_Right_6
*129 PHY_EDGE_ROW_7_Left_20
*130 PHY_EDGE_ROW_7_Right_7
*131 PHY_EDGE_ROW_8_Left_21
*132 PHY_EDGE_ROW_8_Right_8
*133 PHY_EDGE_ROW_9_Left_22
*134 PHY_EDGE_ROW_9_Right_9
*135 TAP_TAPCELL_ROW_0_26
*136 TAP_TAPCELL_ROW_10_31
*137 TAP_TAPCELL_ROW_12_32
*138 TAP_TAPCELL_ROW_2_27
*139 TAP_TAPCELL_ROW_4_28
*140 TAP_TAPCELL_ROW_6_29
*141 TAP_TAPCELL_ROW_8_30
*142 _09_
*143 _10_
*144 _11_
*145 _12_
*146 _13_
*147 _14_
*148 _15_
*149 _16_
*150 _17_
*151 _18_
*152 _19_
*153 _20_
*154 _21_
*155 _22_
*156 _23_
*157 _24_
*158 _25_
*159 input1
*160 input2
*161 input3
*162 input4
*163 input5
*164 input6
*165 input7
*166 input8
*167 output10
*168 output11
*169 output12
*170 output13
*171 output14
*172 output15
*173 output16
*174 output9

*PORTS
in[0] I
in[1] I
in[2] I
in[3] I
in[4] I
in[5] I
in[6] I
in[7] I
out[0] O
out[1] O
out[2] O
out[3] O
out[4] O
out[5] O
out[6] O
out[7] O

*D_NET *3 0.000986291
*CONN
*P in[0] I
*I *159:A I *D sky130_fd_sc_hd__dlymetal6s2s_1
*CAP
1 in[0] 0.000493145
2 *159:A 0.000493145
3 *159:A *160:A 0
*RES
1 in[0] *159:A 9.94677 
*END

*D_NET *4 0.000714757
*CONN
*P in[1] I
*I *160:A I *D sky130_fd_sc_hd__buf_1
*CAP
1 in[1] 0.000354463
2 *160:A 0.000354463
3 *160:A *161:A 0
4 *160:A *28:12 0
5 *160:A *36:10 5.83121e-06
6 *159:A *160:A 0
*RES
1 in[1] *160:A 8.3643 
*END

*D_NET *5 0.000546316
*CONN
*P in[2] I
*I *161:A I *D sky130_fd_sc_hd__buf_1
*CAP
1 in[2] 0.000273158
2 *161:A 0.000273158
3 *161:A *162:A 0
4 *160:A *161:A 0
*RES
1 in[2] *161:A 6.8343 
*END

*D_NET *6 0.000576381
*CONN
*P in[3] I
*I *162:A I *D sky130_fd_sc_hd__clkbuf_1
*CAP
1 in[3] 0.00028819
2 *162:A 0.00028819
3 *162:A *163:A 0
4 *161:A *162:A 0
*RES
1 in[3] *162:A 7.0893 
*END

*D_NET *7 0.000573814
*CONN
*P in[4] I
*I *163:A I *D sky130_fd_sc_hd__buf_1
*CAP
1 in[4] 0.000286907
2 *163:A 0.000286907
3 *163:A *154:A1 0
4 *163:A *164:A 0
5 *162:A *163:A 0
*RES
1 in[4] *163:A 7.0893 
*END

*D_NET *8 0.000931776
*CONN
*P in[5] I
*I *164:A I *D sky130_fd_sc_hd__buf_1
*CAP
1 in[5] 0.000414494
2 *164:A 0.000414494
3 *164:A *154:A1 4.99619e-05
4 *164:A *154:A2 5.28255e-05
5 *164:A *155:B 0
6 *164:A *165:A 0
7 *164:A *41:14 0
8 *163:A *164:A 0
*RES
1 in[5] *164:A 10.1054 
*END

*D_NET *9 0.000531435
*CONN
*P in[6] I
*I *165:A I *D sky130_fd_sc_hd__clkbuf_1
*CAP
1 in[6] 0.000265717
2 *165:A 0.000265717
3 *165:A *166:A 0
4 *164:A *165:A 0
*RES
1 in[6] *165:A 6.8343 
*END

*D_NET *10 0.0013105
*CONN
*P in[7] I
*I *166:A I *D sky130_fd_sc_hd__buf_1
*CAP
1 in[7] 0.000655252
2 *166:A 0.000655252
3 *166:A *41:14 0
4 *165:A *166:A 0
*RES
1 in[7] *166:A 12.7518 
*END

*D_NET *11 0.00109227
*CONN
*P out[0] O
*I *174:X O *D sky130_fd_sc_hd__buf_2
*CAP
1 out[0] 0.000546133
2 *174:X 0.000546133
3 out[0] out[1] 0
*RES
1 *174:X out[0] 9.66983 
*END

*D_NET *12 0.000411239
*CONN
*P out[1] O
*I *167:X O *D sky130_fd_sc_hd__buf_2
*CAP
1 out[1] 0.00020562
2 *167:X 0.00020562
3 out[1] out[2] 0
4 out[0] out[1] 0
*RES
1 *167:X out[1] 4.84677 
*END

*D_NET *13 0.000410041
*CONN
*P out[2] O
*I *168:X O *D sky130_fd_sc_hd__buf_2
*CAP
1 out[2] 0.00020502
2 *168:X 0.00020502
3 out[2] out[3] 0
4 out[2] *167:A 0
5 out[1] out[2] 0
*RES
1 *168:X out[2] 4.84677 
*END

*D_NET *14 0.000539861
*CONN
*P out[3] O
*I *169:X O *D sky130_fd_sc_hd__buf_2
*CAP
1 out[3] 0.00026993
2 *169:X 0.00026993
3 out[3] out[4] 0
4 out[3] *174:A 0
5 out[2] out[3] 0
*RES
1 *169:X out[3] 5.86677 
*END

*D_NET *15 0.000417687
*CONN
*P out[4] O
*I *170:X O *D sky130_fd_sc_hd__buf_2
*CAP
1 out[4] 0.000202416
2 *170:X 0.000202416
3 out[4] out[5] 0
4 out[4] *149:B 8.66976e-06
5 out[4] *151:B 4.18603e-06
6 out[3] out[4] 0
*RES
1 *170:X out[4] 4.84677 
*END

*D_NET *16 0.0005579
*CONN
*P out[5] O
*I *171:X O *D sky130_fd_sc_hd__buf_2
*CAP
1 out[5] 0.000248605
2 *171:X 0.000248605
3 out[5] out[6] 0
4 out[5] *171:A 6.06899e-05
5 out[4] out[5] 0
*RES
1 *171:X out[5] 5.86677 
*END

*D_NET *17 0.000776469
*CONN
*P out[6] O
*I *172:X O *D sky130_fd_sc_hd__buf_2
*CAP
1 out[6] 0.000388235
2 *172:X 0.000388235
3 out[6] out[7] 0
4 out[5] out[6] 0
*RES
1 *172:X out[6] 5.19637 
*END

*D_NET *18 0.000971234
*CONN
*P out[7] O
*I *173:X O *D sky130_fd_sc_hd__clkbuf_4
*CAP
1 out[7] 0.000485617
2 *173:X 0.000485617
3 out[6] out[7] 0
*RES
1 *173:X out[7] 10.1435 
*END

*D_NET *19 0.00575305
*CONN
*I *148:D I *D sky130_fd_sc_hd__or4_1
*I *143:B I *D sky130_fd_sc_hd__nor2_1
*I *147:A3 I *D sky130_fd_sc_hd__o31a_1
*I *157:B1_N I *D sky130_fd_sc_hd__a21boi_1
*I *144:B I *D sky130_fd_sc_hd__and2_1
*I *142:X O *D sky130_fd_sc_hd__or4_2
*CAP
1 *148:D 0.000307394
2 *143:B 0.000365046
3 *147:A3 0
4 *157:B1_N 4.63615e-05
5 *144:B 0.000171686
6 *142:X 0.000357492
7 *19:51 0.000822005
8 *19:42 0.000149565
9 *19:12 0.000318586
10 *19:10 0.00045803
11 *143:B *143:A 0.000711698
12 *143:B *149:A_N 0
13 *143:B *157:A2 1.07797e-05
14 *144:B *145:B 0.000121643
15 *144:B *157:A1 9.18254e-05
16 *144:B *157:A2 0.000117777
17 *144:B *41:14 6.17587e-06
18 *148:D *148:A 0.000597457
19 *157:B1_N *157:A2 4.66108e-05
20 *157:B1_N *40:23 3.85753e-05
21 *19:10 *142:D 4.89295e-05
22 *19:10 *150:A 4.77719e-05
23 *19:10 *152:A 1.05984e-05
24 *19:10 *154:B1 0
25 *19:10 *28:31 3.10366e-05
26 *19:10 *28:35 0.000216795
27 *19:12 *28:35 2.26364e-05
28 *19:12 *40:23 0.000122498
29 *19:51 *148:A 4.66108e-05
30 *19:51 *148:C 0.000189511
31 *19:51 *39:23 4.7327e-05
32 *19:51 *39:30 0.000230633
*RES
1 *142:X *19:10 10.2 
2 *19:10 *19:12 2.0175 
3 *19:12 *144:B 7.1775 
4 *19:12 *157:B1_N 4.5375 
5 *19:10 *19:42 2 
6 *19:42 *147:A3 1.6 
7 *19:42 *19:51 3.57 
8 *19:51 *143:B 14.12 
9 *19:51 *148:D 7.225 
*END

*D_NET *20 0.00441741
*CONN
*I *145:A I *D sky130_fd_sc_hd__nor2_1
*I *146:B I *D sky130_fd_sc_hd__xnor2_1
*I *143:Y O *D sky130_fd_sc_hd__nor2_1
*CAP
1 *145:A 0.000506115
2 *146:B 0.000408373
3 *143:Y 0.000279087
4 *20:8 0.00119358
5 *145:A *149:A_N 0
6 *145:A *150:A 0.000821693
7 *145:A *172:A 6.00003e-05
8 *146:B *146:A 0.000122797
9 *146:B *171:A 0.000732926
10 *146:B *172:A 1.42673e-05
11 *20:8 *149:B 4.82863e-05
12 *20:8 *151:A 0.000230292
*RES
1 *143:Y *20:8 7.5 
2 *20:8 *146:B 12.675 
3 *20:8 *145:A 14.865 
*END

*D_NET *21 0.00324207
*CONN
*I *145:B I *D sky130_fd_sc_hd__nor2_1
*I *144:X O *D sky130_fd_sc_hd__and2_1
*CAP
1 *145:B 0.000815116
2 *144:X 0.000815116
3 *145:B *157:A2 1.53053e-05
4 *145:B *169:A 0.00118825
5 *145:B *172:A 0.000286642
6 *144:B *145:B 0.000121643
*RES
1 *144:X *145:B 20.385 
*END

*D_NET *22 0.00198284
*CONN
*I *149:A_N I *D sky130_fd_sc_hd__and2b_1
*I *147:X O *D sky130_fd_sc_hd__o31a_1
*CAP
1 *149:A_N 0.000761504
2 *147:X 0.000761504
3 *149:A_N *148:B 0.000459832
4 *143:B *149:A_N 0
5 *145:A *149:A_N 0
*RES
1 *147:X *149:A_N 18.69 
*END

*D_NET *23 0.00333031
*CONN
*I *151:B I *D sky130_fd_sc_hd__xor2_1
*I *149:B I *D sky130_fd_sc_hd__and2b_1
*I *148:X O *D sky130_fd_sc_hd__or4_1
*CAP
1 *151:B 0.000274654
2 *149:B 0.000444604
3 *148:X 0
4 *23:6 0.000719258
5 *149:B *151:A 0.000236355
6 *149:B *171:A 0.000413847
7 *149:B *173:A 0.000704453
8 *151:B *170:A 0.000118513
9 *151:B *173:A 0.000357483
10 *151:B *174:A 0
11 out[4] *149:B 8.66976e-06
12 out[4] *151:B 4.18603e-06
13 *20:8 *149:B 4.82863e-05
*RES
1 *148:X *23:6 3.6 
2 *23:6 *149:B 15.51 
3 *23:6 *151:B 9.78 
*END

*D_NET *24 0.00453851
*CONN
*I *150:A I *D sky130_fd_sc_hd__clkbuf_1
*I *149:X O *D sky130_fd_sc_hd__and2b_1
*CAP
1 *150:A 0.000561762
2 *149:X 0.000561762
3 *150:A *142:A 0
4 *150:A *152:A 0.000641139
5 *150:A *169:A 7.21296e-06
6 *150:A *172:A 0.00189717
7 *145:A *150:A 0.000821693
8 *19:10 *150:A 4.77719e-05
*RES
1 *149:X *150:A 28.62 
*END

*D_NET *25 0.00341128
*CONN
*I *155:A I *D sky130_fd_sc_hd__and2_1
*I *157:A2 I *D sky130_fd_sc_hd__a21boi_1
*I *153:X O *D sky130_fd_sc_hd__or3_1
*CAP
1 *155:A 0.000189956
2 *157:A2 0.00077371
3 *153:X 0.000251347
4 *25:10 0.00121501
5 *155:A *155:B 8.64421e-05
6 *155:A *156:A 9.13204e-05
7 *157:A2 *143:A 0.000174279
8 *157:A2 *148:C 2.04583e-05
9 *157:A2 *152:B 0
10 *157:A2 *157:A1 2.86975e-05
11 *157:A2 *169:A 0.000305034
12 *157:A2 *28:16 0
13 *157:A2 *28:31 0
14 *157:A2 *28:35 0
15 *25:10 *153:A 3.67779e-05
16 *25:10 *153:B 4.77719e-05
17 *25:10 *156:A 0
18 *25:10 *28:16 0
19 *143:B *157:A2 1.07797e-05
20 *144:B *157:A2 0.000117777
21 *145:B *157:A2 1.53053e-05
22 *157:B1_N *157:A2 4.66108e-05
*RES
1 *153:X *25:10 7.725 
2 *25:10 *157:A2 17.91 
3 *25:10 *155:A 7.155 
*END

*D_NET *26 0.00298786
*CONN
*I *155:B I *D sky130_fd_sc_hd__and2_1
*I *154:Y O *D sky130_fd_sc_hd__o21ai_1
*CAP
1 *155:B 0.000447518
2 *154:Y 0.000447518
3 *155:B *142:A 0.000253949
4 *155:B *154:A1 5.3023e-05
5 *155:B *154:B1 0.000959491
6 *155:B *157:A1 0.000519815
7 *155:B *36:10 7.45712e-05
8 *155:B *37:10 0.000132096
9 *155:B *41:14 1.34361e-05
10 *155:A *155:B 8.64421e-05
11 *164:A *155:B 0
*RES
1 *154:Y *155:B 22.23 
*END

*D_NET *27 0.00167608
*CONN
*I *156:A I *D sky130_fd_sc_hd__clkbuf_1
*I *155:X O *D sky130_fd_sc_hd__and2_1
*CAP
1 *156:A 0.000792381
2 *155:X 0.000792381
3 *156:A *153:A 0
4 *156:A *174:A 0
5 *155:A *156:A 9.13204e-05
6 *25:10 *156:A 0
*RES
1 *155:X *156:A 17.94 
*END

*D_NET *28 0.00766382
*CONN
*I *153:C I *D sky130_fd_sc_hd__or3_1
*I *152:B I *D sky130_fd_sc_hd__xor2_1
*I *158:A I *D sky130_fd_sc_hd__clkbuf_1
*I *154:A2 I *D sky130_fd_sc_hd__o21ai_1
*I *142:D I *D sky130_fd_sc_hd__or4_2
*I *159:X O *D sky130_fd_sc_hd__dlymetal6s2s_1
*CAP
1 *153:C 0.000149327
2 *152:B 0.000607008
3 *158:A 0.000619413
4 *154:A2 0.000318023
5 *142:D 0.000264179
6 *159:X 0.000263273
7 *28:35 0.00139494
8 *28:31 0.00113554
9 *28:16 0.000750678
10 *28:12 0.000828077
11 *142:D *142:A 0.000119246
12 *142:D *152:A 6.41532e-05
13 *152:B *174:A 0
14 *153:C *153:B 0.000132729
15 *154:A2 *40:8 1.68291e-05
16 *28:12 *153:B 0.000205584
17 *28:16 *153:A 0
18 *28:16 *154:B1 0
19 *28:16 *37:10 0
20 *28:31 *154:B1 0
21 *28:35 *143:A 0
22 *28:35 *146:A 0.000121575
23 *28:35 *148:C 3.67779e-05
24 *28:35 *40:23 0.00026425
25 *157:A2 *152:B 0
26 *157:A2 *28:16 0
27 *157:A2 *28:31 0
28 *157:A2 *28:35 0
29 *160:A *28:12 0
30 *164:A *154:A2 5.28255e-05
31 *19:10 *142:D 4.89295e-05
32 *19:10 *28:31 3.10366e-05
33 *19:10 *28:35 0.000216795
34 *19:12 *28:35 2.26364e-05
35 *25:10 *28:16 0
*RES
1 *159:X *28:12 10.7 
2 *28:12 *28:16 8.6075 
3 *28:16 *142:D 7.4925 
4 *28:16 *28:31 1.2525 
5 *28:31 *28:35 11.54 
6 *28:35 *154:A2 5.155 
7 *28:35 *158:A 10.27 
8 *28:31 *152:B 14.515 
9 *28:12 *153:C 4.465 
*END

*D_NET *29 0.00176579
*CONN
*I *167:A I *D sky130_fd_sc_hd__buf_2
*I *152:X O *D sky130_fd_sc_hd__xor2_1
*CAP
1 *167:A 0.000534176
2 *152:X 0.000534176
3 *167:A *168:A 0.000319855
4 *167:A *169:A 0.000160641
5 *167:A *172:A 3.64998e-06
6 *167:A *174:A 0.000213287
7 out[2] *167:A 0
*RES
1 *152:X *167:A 18.525 
*END

*D_NET *30 0.00160701
*CONN
*I *168:A I *D sky130_fd_sc_hd__buf_2
*I *156:X O *D sky130_fd_sc_hd__clkbuf_1
*CAP
1 *168:A 0.000470326
2 *156:X 0.000470326
3 *168:A *174:A 0.000346506
4 *167:A *168:A 0.000319855
*RES
1 *156:X *168:A 15.57 
*END

*D_NET *31 0.0037835
*CONN
*I *169:A I *D sky130_fd_sc_hd__buf_2
*I *157:Y O *D sky130_fd_sc_hd__a21boi_1
*CAP
1 *169:A 0.000668183
2 *157:Y 0.000668183
3 *169:A *151:A 0.000512731
4 *169:A *172:A 0.000186392
5 *169:A *174:A 8.68724e-05
6 *145:B *169:A 0.00118825
7 *150:A *169:A 7.21296e-06
8 *157:A2 *169:A 0.000305034
9 *167:A *169:A 0.000160641
*RES
1 *157:Y *169:A 26.205 
*END

*D_NET *32 0.000898103
*CONN
*I *170:A I *D sky130_fd_sc_hd__buf_2
*I *145:Y O *D sky130_fd_sc_hd__nor2_1
*CAP
1 *170:A 0.000389795
2 *145:Y 0.000389795
3 *151:B *170:A 0.000118513
*RES
1 *145:Y *170:A 11.79 
*END

*D_NET *33 0.00295181
*CONN
*I *171:A I *D sky130_fd_sc_hd__buf_2
*I *146:Y O *D sky130_fd_sc_hd__xnor2_1
*CAP
1 *171:A 0.000828796
2 *146:Y 0.000828796
3 *171:A *173:A 8.67498e-05
4 out[5] *171:A 6.06899e-05
5 *146:B *171:A 0.000732926
6 *149:B *171:A 0.000413847
*RES
1 *146:Y *171:A 23.625 
*END

*D_NET *34 0.00498287
*CONN
*I *172:A I *D sky130_fd_sc_hd__buf_2
*I *150:X O *D sky130_fd_sc_hd__clkbuf_1
*CAP
1 *172:A 0.001147
2 *150:X 0.001147
3 *172:A *151:A 0.000240736
4 *172:A *173:A 0
5 *145:A *172:A 6.00003e-05
6 *145:B *172:A 0.000286642
7 *146:B *172:A 1.42673e-05
8 *150:A *172:A 0.00189717
9 *167:A *172:A 3.64998e-06
10 *169:A *172:A 0.000186392
*RES
1 *150:X *172:A 31.71 
*END

*D_NET *35 0.00238452
*CONN
*I *173:A I *D sky130_fd_sc_hd__clkbuf_4
*I *151:X O *D sky130_fd_sc_hd__xor2_1
*CAP
1 *173:A 0.000474471
2 *151:X 0.000474471
3 *173:A *151:A 0
4 *173:A *174:A 0.000286894
5 *149:B *173:A 0.000704453
6 *151:B *173:A 0.000357483
7 *171:A *173:A 8.67498e-05
8 *172:A *173:A 0
*RES
1 *151:X *173:A 21.525 
*END

*D_NET *36 0.00528417
*CONN
*I *153:B I *D sky130_fd_sc_hd__or3_1
*I *152:A I *D sky130_fd_sc_hd__xor2_1
*I *142:C I *D sky130_fd_sc_hd__or4_2
*I *154:A1 I *D sky130_fd_sc_hd__o21ai_1
*I *160:X O *D sky130_fd_sc_hd__buf_1
*CAP
1 *153:B 0.000314306
2 *152:A 0.000393053
3 *142:C 0
4 *154:A1 0.00047061
5 *160:X 0
6 *36:33 0.000523165
7 *36:10 0.000980763
8 *36:4 0.000694347
9 *152:A *142:A 3.68999e-05
10 *154:A1 *142:A 0.000137968
11 *154:A1 *144:A 0.000143266
12 *154:A1 *157:A1 0.000215155
13 *36:10 *142:A 4.43871e-06
14 *36:10 *37:10 0
15 *36:33 *142:A 8.4839e-05
16 *142:D *152:A 6.41532e-05
17 *150:A *152:A 0.000641139
18 *153:C *153:B 0.000132729
19 *155:B *154:A1 5.3023e-05
20 *155:B *36:10 7.45712e-05
21 *160:A *36:10 5.83121e-06
22 *163:A *154:A1 0
23 *164:A *154:A1 4.99619e-05
24 *19:10 *152:A 1.05984e-05
25 *25:10 *153:B 4.77719e-05
26 *28:12 *153:B 0.000205584
*RES
1 *160:X *36:4 1.6 
2 *36:4 *36:10 8.51 
3 *36:10 *154:A1 14.355 
4 *36:10 *36:33 4.415 
5 *36:33 *142:C 1.6 
6 *36:33 *152:A 10.45 
7 *36:4 *153:B 7.585 
*END

*D_NET *37 0.00400459
*CONN
*I *153:A I *D sky130_fd_sc_hd__or3_1
*I *142:B I *D sky130_fd_sc_hd__or4_2
*I *154:B1 I *D sky130_fd_sc_hd__o21ai_1
*I *161:X O *D sky130_fd_sc_hd__buf_1
*CAP
1 *153:A 0.000585341
2 *142:B 0
3 *154:B1 0.000364024
4 *161:X 7.57003e-05
5 *37:10 0.00058557
6 *37:6 0.000882587
7 *154:B1 *41:14 0.000383003
8 *155:B *154:B1 0.000959491
9 *155:B *37:10 0.000132096
10 *156:A *153:A 0
11 *19:10 *154:B1 0
12 *25:10 *153:A 3.67779e-05
13 *28:16 *153:A 0
14 *28:16 *154:B1 0
15 *28:16 *37:10 0
16 *28:31 *154:B1 0
17 *36:10 *37:10 0
*RES
1 *161:X *37:6 2.395 
2 *37:6 *37:10 6.185 
3 *37:10 *154:B1 14.67 
4 *37:10 *142:B 3.6 
5 *37:6 *153:A 12.26 
*END

*D_NET *38 0.00242288
*CONN
*I *142:A I *D sky130_fd_sc_hd__or4_2
*I *157:A1 I *D sky130_fd_sc_hd__a21boi_1
*I *162:X O *D sky130_fd_sc_hd__clkbuf_1
*CAP
1 *142:A 0.000129319
2 *157:A1 0.000264903
3 *162:X 0
4 *38:6 0.000394223
5 *157:A1 *144:A 0.000141599
6 *142:D *142:A 0.000119246
7 *144:B *157:A1 9.18254e-05
8 *150:A *142:A 0
9 *152:A *142:A 3.68999e-05
10 *154:A1 *142:A 0.000137968
11 *154:A1 *157:A1 0.000215155
12 *155:B *142:A 0.000253949
13 *155:B *157:A1 0.000519815
14 *157:A2 *157:A1 2.86975e-05
15 *36:10 *142:A 4.43871e-06
16 *36:33 *142:A 8.4839e-05
*RES
1 *162:X *38:6 3.6 
2 *38:6 *157:A1 11.4 
3 *38:6 *142:A 8.01 
*END

*D_NET *39 0.00498649
*CONN
*I *148:A I *D sky130_fd_sc_hd__or4_1
*I *143:A I *D sky130_fd_sc_hd__nor2_1
*I *147:A1 I *D sky130_fd_sc_hd__o31a_1
*I *144:A I *D sky130_fd_sc_hd__and2_1
*I *163:X O *D sky130_fd_sc_hd__buf_1
*CAP
1 *148:A 0.000187273
2 *143:A 0.000327723
3 *147:A1 0
4 *144:A 6.88201e-05
5 *163:X 0
6 *39:30 0.000565985
7 *39:23 0.000298498
8 *39:4 0.000316328
9 *143:A *146:A 0
10 *143:A *151:A 4.99619e-05
11 *148:A *148:C 0.000668926
12 *39:23 *148:B 4.66108e-05
13 *39:23 *148:C 9.47267e-06
14 *39:23 *41:14 0.000160314
15 *39:30 *148:B 3.63267e-05
16 *39:30 *148:C 0.000157378
17 *143:B *143:A 0.000711698
18 *148:D *148:A 0.000597457
19 *154:A1 *144:A 0.000143266
20 *157:A1 *144:A 0.000141599
21 *157:A2 *143:A 0.000174279
22 *19:51 *148:A 4.66108e-05
23 *19:51 *39:23 4.7327e-05
24 *19:51 *39:30 0.000230633
25 *28:35 *143:A 0
*RES
1 *163:X *39:4 1.6 
2 *39:4 *144:A 7.685 
3 *39:4 *39:23 4.275 
4 *39:23 *147:A1 1.6 
5 *39:23 *39:30 2.175 
6 *39:30 *143:A 14.315 
7 *39:30 *148:A 8.605 
*END

*D_NET *40 0.00420021
*CONN
*I *148:B I *D sky130_fd_sc_hd__or4_1
*I *147:A2 I *D sky130_fd_sc_hd__o31a_1
*I *146:A I *D sky130_fd_sc_hd__xnor2_1
*I *164:X O *D sky130_fd_sc_hd__buf_1
*CAP
1 *148:B 0.000343185
2 *147:A2 0
3 *146:A 0.000500971
4 *164:X 0.000132465
5 *40:23 0.000456158
6 *40:8 0.00074641
7 *148:B *148:C 0.000791723
8 *143:A *146:A 0
9 *146:B *146:A 0.000122797
10 *149:A_N *148:B 0.000459832
11 *154:A2 *40:8 1.68291e-05
12 *157:B1_N *40:23 3.85753e-05
13 *19:12 *40:23 0.000122498
14 *28:35 *146:A 0.000121575
15 *28:35 *40:23 0.00026425
16 *39:23 *148:B 4.66108e-05
17 *39:30 *148:B 3.63267e-05
*RES
1 *164:X *40:8 5.085 
2 *40:8 *146:A 12.075 
3 *40:8 *40:23 5.165 
4 *40:23 *147:A2 1.6 
5 *40:23 *148:B 10.345 
*END

*D_NET *41 0.00465314
*CONN
*I *148:C I *D sky130_fd_sc_hd__or4_1
*I *147:B1 I *D sky130_fd_sc_hd__o31a_1
*I *165:X O *D sky130_fd_sc_hd__clkbuf_1
*CAP
1 *148:C 0.000382442
2 *147:B1 0
3 *165:X 0.000725541
4 *41:14 0.00110798
5 *144:B *41:14 6.17587e-06
6 *148:A *148:C 0.000668926
7 *148:B *148:C 0.000791723
8 *154:B1 *41:14 0.000383003
9 *155:B *41:14 1.34361e-05
10 *157:A2 *148:C 2.04583e-05
11 *164:A *41:14 0
12 *166:A *41:14 0
13 *19:51 *148:C 0.000189511
14 *28:35 *148:C 3.67779e-05
15 *39:23 *148:C 9.47267e-06
16 *39:23 *41:14 0.000160314
17 *39:30 *148:C 0.000157378
*RES
1 *165:X *41:14 18.02 
2 *41:14 *147:B1 1.6 
3 *41:14 *148:C 16.61 
*END

*D_NET *42 0.00436227
*CONN
*I *151:A I *D sky130_fd_sc_hd__xor2_1
*I *166:X O *D sky130_fd_sc_hd__buf_1
*CAP
1 *151:A 0.00116432
2 *166:X 0.00116432
3 *151:A *174:A 0.000763552
4 *143:A *151:A 4.99619e-05
5 *149:B *151:A 0.000236355
6 *169:A *151:A 0.000512731
7 *172:A *151:A 0.000240736
8 *173:A *151:A 0
9 *20:8 *151:A 0.000230292
*RES
1 *166:X *151:A 32.01 
*END

*D_NET *43 0.00305872
*CONN
*I *174:A I *D sky130_fd_sc_hd__buf_2
*I *158:X O *D sky130_fd_sc_hd__clkbuf_1
*CAP
1 *174:A 0.000680804
2 *158:X 0.000680804
3 out[3] *174:A 0
4 *151:A *174:A 0.000763552
5 *151:B *174:A 0
6 *152:B *174:A 0
7 *156:A *174:A 0
8 *167:A *174:A 0.000213287
9 *168:A *174:A 0.000346506
10 *169:A *174:A 8.68724e-05
11 *173:A *174:A 0.000286894
*RES
1 *158:X *174:A 26.37 
*END
