*SPEF "ieee 1481-1999"
*DESIGN "ALU"
*DATE "12:07:29 Sunday May 04, 2025"
*VENDOR "The OpenROAD Project"
*PROGRAM "OpenROAD"
*VERSION "b16bda7e82721d10566ff7e2b68f1ff0be9f9e38"
*DESIGN_FLOW "NAME_SCOPE LOCAL" "PIN_CAP NONE"
*DIVIDER /
*DELIMITER :
*BUS_DELIMITER []
*T_UNIT 1 NS
*C_UNIT 1 PF
*R_UNIT 1 OHM
*L_UNIT 1 HENRY

*NAME_MAP
*1 A[0]
*2 A[1]
*3 A[2]
*4 A[3]
*5 A[4]
*6 A[5]
*7 A[6]
*8 A[7]
*9 B[0]
*10 B[1]
*11 B[2]
*12 B[3]
*13 B[4]
*14 B[5]
*15 B[6]
*16 B[7]
*17 OUT[0]
*18 OUT[1]
*19 OUT[2]
*20 OUT[3]
*21 OUT[4]
*22 OUT[5]
*23 OUT[6]
*24 OUT[7]
*27 opcode[0]
*28 opcode[1]
*29 opcode[2]
*30 _000_
*31 _001_
*32 _002_
*33 _003_
*34 _004_
*35 _005_
*36 _006_
*37 _007_
*38 _008_
*39 _009_
*40 _010_
*41 _011_
*42 _012_
*43 _013_
*44 _014_
*45 _015_
*46 _016_
*47 _017_
*48 _018_
*49 _019_
*50 _020_
*51 _021_
*52 _022_
*53 _023_
*54 _024_
*55 _025_
*56 _026_
*57 _027_
*58 _028_
*59 _029_
*60 _030_
*61 _031_
*62 _032_
*63 _033_
*64 _034_
*65 _035_
*66 _036_
*67 _037_
*68 _038_
*69 _039_
*70 _040_
*71 _041_
*72 _042_
*73 _043_
*74 _044_
*75 _045_
*76 _046_
*77 _047_
*78 _048_
*79 _049_
*80 _050_
*81 _051_
*82 _052_
*83 _053_
*84 _054_
*85 _055_
*86 _056_
*87 _057_
*88 _058_
*89 _059_
*90 _060_
*91 _061_
*92 _062_
*93 _063_
*94 _064_
*95 _065_
*96 _066_
*97 _067_
*98 _068_
*99 _069_
*100 _070_
*101 _071_
*102 _072_
*103 _073_
*104 _074_
*105 _075_
*106 _076_
*107 _077_
*108 _078_
*109 _079_
*110 _080_
*111 _081_
*112 _082_
*113 _083_
*114 _084_
*115 _085_
*116 _086_
*117 _087_
*118 _088_
*119 _089_
*120 _090_
*121 _091_
*122 _092_
*123 _093_
*124 _094_
*125 _095_
*126 _096_
*127 _097_
*128 _098_
*129 _099_
*130 _100_
*131 _101_
*132 _102_
*133 _103_
*134 _104_
*135 _105_
*136 _106_
*137 _107_
*138 _108_
*139 _109_
*140 _110_
*141 _111_
*142 _112_
*143 _113_
*144 _114_
*145 _115_
*146 _116_
*147 _117_
*148 _118_
*149 _119_
*150 _120_
*151 _121_
*152 _122_
*153 _123_
*154 _124_
*155 _125_
*156 _126_
*157 _127_
*158 _128_
*159 _129_
*160 _130_
*161 _131_
*162 _132_
*163 _133_
*164 _134_
*165 _135_
*166 _136_
*167 _137_
*168 _138_
*169 _139_
*170 _140_
*171 _141_
*172 _142_
*173 _143_
*174 _144_
*175 _145_
*176 _146_
*177 _147_
*178 _148_
*179 _149_
*180 _150_
*181 _151_
*182 _152_
*183 _153_
*184 _154_
*185 _155_
*186 _156_
*187 _157_
*188 _158_
*189 _159_
*190 _160_
*191 _161_
*192 _162_
*193 _163_
*194 _164_
*195 _165_
*196 _166_
*197 _167_
*198 _168_
*199 _169_
*200 _170_
*201 _171_
*202 _172_
*203 _173_
*204 _174_
*205 _175_
*206 _176_
*207 _177_
*208 _178_
*209 _179_
*210 _180_
*211 _181_
*212 _182_
*213 _183_
*214 _184_
*215 _185_
*216 _186_
*217 _187_
*218 _188_
*219 _189_
*220 _190_
*221 _191_
*222 _192_
*223 _193_
*224 _194_
*225 _195_
*226 _196_
*227 _197_
*228 _198_
*229 _199_
*230 _200_
*231 _201_
*232 _202_
*233 _203_
*234 _204_
*235 _205_
*236 _206_
*237 _207_
*238 _208_
*239 _209_
*240 _210_
*241 _211_
*242 _212_
*243 _213_
*244 _214_
*245 _215_
*246 _216_
*247 _217_
*248 _218_
*249 _219_
*250 _220_
*251 _221_
*252 _222_
*253 _223_
*254 _224_
*255 _225_
*256 _226_
*257 _227_
*258 _228_
*259 _229_
*260 _230_
*261 _231_
*262 _232_
*263 _233_
*264 _234_
*265 _235_
*266 _236_
*267 _237_
*268 _238_
*269 _239_
*270 _240_
*271 _241_
*272 _242_
*273 _243_
*274 _244_
*275 _245_
*276 _246_
*277 _247_
*278 net1
*279 net10
*280 net11
*281 net12
*282 net13
*283 net14
*284 net15
*285 net16
*286 net17
*287 net18
*288 net19
*289 net2
*290 net20
*291 net21
*292 net22
*293 net23
*294 net24
*295 net25
*296 net26
*297 net27
*298 net28
*299 net29
*300 net3
*301 net30
*302 net31
*303 net32
*304 net33
*305 net34
*306 net35
*307 net36
*308 net37
*309 net38
*310 net39
*311 net4
*312 net40
*313 net41
*314 net42
*315 net43
*316 net44
*317 net45
*318 net46
*319 net47
*320 net48
*321 net49
*322 net5
*323 net50
*324 net51
*325 net52
*326 net53
*327 net6
*328 net7
*329 net8
*330 net9
*331 ANTENNA_1
*332 ANTENNA_10
*333 ANTENNA_11
*334 ANTENNA_2
*335 ANTENNA_3
*336 ANTENNA_4
*337 ANTENNA_5
*338 ANTENNA_6
*339 ANTENNA_7
*340 ANTENNA_8
*341 ANTENNA_9
*342 FILLER_0_0_100
*343 FILLER_0_0_113
*344 FILLER_0_0_125
*345 FILLER_0_0_137
*346 FILLER_0_0_141
*347 FILLER_0_0_153
*348 FILLER_0_0_165
*349 FILLER_0_0_169
*350 FILLER_0_0_184
*351 FILLER_0_0_21
*352 FILLER_0_0_27
*353 FILLER_0_0_29
*354 FILLER_0_0_41
*355 FILLER_0_0_53
*356 FILLER_0_0_57
*357 FILLER_0_0_69
*358 FILLER_0_0_81
*359 FILLER_0_0_85
*360 FILLER_0_0_9
*361 FILLER_0_10_118
*362 FILLER_0_10_130
*363 FILLER_0_10_138
*364 FILLER_0_10_14
*365 FILLER_0_10_141
*366 FILLER_0_10_153
*367 FILLER_0_10_165
*368 FILLER_0_10_177
*369 FILLER_0_10_182
*370 FILLER_0_10_29
*371 FILLER_0_10_3
*372 FILLER_0_10_41
*373 FILLER_0_10_49
*374 FILLER_0_10_69
*375 FILLER_0_10_81
*376 FILLER_0_11_109
*377 FILLER_0_11_113
*378 FILLER_0_11_125
*379 FILLER_0_11_137
*380 FILLER_0_11_149
*381 FILLER_0_11_157
*382 FILLER_0_11_165
*383 FILLER_0_11_181
*384 FILLER_0_11_189
*385 FILLER_0_11_36
*386 FILLER_0_11_48
*387 FILLER_0_11_77
*388 FILLER_0_11_9
*389 FILLER_0_12_101
*390 FILLER_0_12_113
*391 FILLER_0_12_12
*392 FILLER_0_12_125
*393 FILLER_0_12_137
*394 FILLER_0_12_141
*395 FILLER_0_12_153
*396 FILLER_0_12_171
*397 FILLER_0_12_175
*398 FILLER_0_12_24
*399 FILLER_0_12_3
*400 FILLER_0_12_42
*401 FILLER_0_12_54
*402 FILLER_0_12_68
*403 FILLER_0_12_80
*404 FILLER_0_13_105
*405 FILLER_0_13_111
*406 FILLER_0_13_113
*407 FILLER_0_13_121
*408 FILLER_0_13_130
*409 FILLER_0_13_142
*410 FILLER_0_13_148
*411 FILLER_0_13_152
*412 FILLER_0_13_158
*413 FILLER_0_13_164
*414 FILLER_0_13_169
*415 FILLER_0_13_21
*416 FILLER_0_13_33
*417 FILLER_0_13_41
*418 FILLER_0_13_53
*419 FILLER_0_13_57
*420 FILLER_0_13_69
*421 FILLER_0_13_77
*422 FILLER_0_13_9
*423 FILLER_0_13_93
*424 FILLER_0_14_109
*425 FILLER_0_14_121
*426 FILLER_0_14_133
*427 FILLER_0_14_139
*428 FILLER_0_14_141
*429 FILLER_0_14_15
*430 FILLER_0_14_153
*431 FILLER_0_14_24
*432 FILLER_0_14_29
*433 FILLER_0_14_3
*434 FILLER_0_14_41
*435 FILLER_0_14_53
*436 FILLER_0_14_57
*437 FILLER_0_14_61
*438 FILLER_0_14_69
*439 FILLER_0_14_83
*440 FILLER_0_14_85
*441 FILLER_0_14_97
*442 FILLER_0_15_103
*443 FILLER_0_15_111
*444 FILLER_0_15_113
*445 FILLER_0_15_125
*446 FILLER_0_15_137
*447 FILLER_0_15_149
*448 FILLER_0_15_15
*449 FILLER_0_15_161
*450 FILLER_0_15_167
*451 FILLER_0_15_169
*452 FILLER_0_15_181
*453 FILLER_0_15_189
*454 FILLER_0_15_27
*455 FILLER_0_15_3
*456 FILLER_0_15_39
*457 FILLER_0_15_51
*458 FILLER_0_15_55
*459 FILLER_0_15_57
*460 FILLER_0_15_61
*461 FILLER_0_15_67
*462 FILLER_0_15_79
*463 FILLER_0_15_91
*464 FILLER_0_16_109
*465 FILLER_0_16_12
*466 FILLER_0_16_121
*467 FILLER_0_16_133
*468 FILLER_0_16_139
*469 FILLER_0_16_141
*470 FILLER_0_16_153
*471 FILLER_0_16_165
*472 FILLER_0_16_177
*473 FILLER_0_16_189
*474 FILLER_0_16_24
*475 FILLER_0_16_36
*476 FILLER_0_16_48
*477 FILLER_0_16_58
*478 FILLER_0_16_70
*479 FILLER_0_16_82
*480 FILLER_0_16_85
*481 FILLER_0_16_97
*482 FILLER_0_17_105
*483 FILLER_0_17_111
*484 FILLER_0_17_113
*485 FILLER_0_17_137
*486 FILLER_0_17_145
*487 FILLER_0_17_15
*488 FILLER_0_17_169
*489 FILLER_0_17_177
*490 FILLER_0_17_185
*491 FILLER_0_17_189
*492 FILLER_0_17_3
*493 FILLER_0_17_30
*494 FILLER_0_17_54
*495 FILLER_0_17_57
*496 FILLER_0_17_69
*497 FILLER_0_17_81
*498 FILLER_0_17_93
*499 FILLER_0_18_133
*500 FILLER_0_18_139
*501 FILLER_0_18_141
*502 FILLER_0_18_153
*503 FILLER_0_18_165
*504 FILLER_0_18_17
*505 FILLER_0_18_171
*506 FILLER_0_18_187
*507 FILLER_0_18_36
*508 FILLER_0_18_48
*509 FILLER_0_18_60
*510 FILLER_0_18_72
*511 FILLER_0_18_85
*512 FILLER_0_18_9
*513 FILLER_0_18_97
*514 FILLER_0_19_111
*515 FILLER_0_19_128
*516 FILLER_0_19_140
*517 FILLER_0_19_15
*518 FILLER_0_19_152
*519 FILLER_0_19_164
*520 FILLER_0_19_169
*521 FILLER_0_19_181
*522 FILLER_0_19_189
*523 FILLER_0_19_3
*524 FILLER_0_19_35
*525 FILLER_0_19_47
*526 FILLER_0_19_57
*527 FILLER_0_19_63
*528 FILLER_0_19_70
*529 FILLER_0_19_87
*530 FILLER_0_19_99
*531 FILLER_0_1_105
*532 FILLER_0_1_111
*533 FILLER_0_1_113
*534 FILLER_0_1_125
*535 FILLER_0_1_131
*536 FILLER_0_1_159
*537 FILLER_0_1_167
*538 FILLER_0_1_169
*539 FILLER_0_1_177
*540 FILLER_0_1_18
*541 FILLER_0_1_3
*542 FILLER_0_1_30
*543 FILLER_0_1_42
*544 FILLER_0_1_54
*545 FILLER_0_1_57
*546 FILLER_0_1_69
*547 FILLER_0_1_81
*548 FILLER_0_1_93
*549 FILLER_0_20_101
*550 FILLER_0_20_106
*551 FILLER_0_20_11
*552 FILLER_0_20_118
*553 FILLER_0_20_127
*554 FILLER_0_20_139
*555 FILLER_0_20_141
*556 FILLER_0_20_153
*557 FILLER_0_20_157
*558 FILLER_0_20_180
*559 FILLER_0_20_22
*560 FILLER_0_20_3
*561 FILLER_0_20_36
*562 FILLER_0_20_55
*563 FILLER_0_20_67
*564 FILLER_0_20_79
*565 FILLER_0_20_83
*566 FILLER_0_20_85
*567 FILLER_0_20_97
*568 FILLER_0_21_109
*569 FILLER_0_21_113
*570 FILLER_0_21_137
*571 FILLER_0_21_149
*572 FILLER_0_21_158
*573 FILLER_0_21_16
*574 FILLER_0_21_167
*575 FILLER_0_21_181
*576 FILLER_0_21_189
*577 FILLER_0_21_28
*578 FILLER_0_21_36
*579 FILLER_0_21_54
*580 FILLER_0_21_57
*581 FILLER_0_21_73
*582 FILLER_0_21_85
*583 FILLER_0_21_97
*584 FILLER_0_22_101
*585 FILLER_0_22_111
*586 FILLER_0_22_123
*587 FILLER_0_22_137
*588 FILLER_0_22_141
*589 FILLER_0_22_15
*590 FILLER_0_22_157
*591 FILLER_0_22_174
*592 FILLER_0_22_186
*593 FILLER_0_22_21
*594 FILLER_0_22_29
*595 FILLER_0_22_3
*596 FILLER_0_22_43
*597 FILLER_0_22_55
*598 FILLER_0_22_69
*599 FILLER_0_22_78
*600 FILLER_0_22_85
*601 FILLER_0_22_97
*602 FILLER_0_23_105
*603 FILLER_0_23_111
*604 FILLER_0_23_113
*605 FILLER_0_23_125
*606 FILLER_0_23_165
*607 FILLER_0_23_169
*608 FILLER_0_23_17
*609 FILLER_0_23_181
*610 FILLER_0_23_189
*611 FILLER_0_23_29
*612 FILLER_0_23_38
*613 FILLER_0_23_50
*614 FILLER_0_23_57
*615 FILLER_0_23_78
*616 FILLER_0_23_90
*617 FILLER_0_23_96
*618 FILLER_0_24_101
*619 FILLER_0_24_107
*620 FILLER_0_24_117
*621 FILLER_0_24_123
*622 FILLER_0_24_135
*623 FILLER_0_24_139
*624 FILLER_0_24_141
*625 FILLER_0_24_153
*626 FILLER_0_24_176
*627 FILLER_0_24_188
*628 FILLER_0_24_23
*629 FILLER_0_24_27
*630 FILLER_0_24_29
*631 FILLER_0_24_3
*632 FILLER_0_24_41
*633 FILLER_0_24_49
*634 FILLER_0_24_64
*635 FILLER_0_24_78
*636 FILLER_0_25_100
*637 FILLER_0_25_113
*638 FILLER_0_25_125
*639 FILLER_0_25_13
*640 FILLER_0_25_137
*641 FILLER_0_25_148
*642 FILLER_0_25_160
*643 FILLER_0_25_169
*644 FILLER_0_25_177
*645 FILLER_0_25_184
*646 FILLER_0_25_25
*647 FILLER_0_25_3
*648 FILLER_0_25_37
*649 FILLER_0_25_49
*650 FILLER_0_25_55
*651 FILLER_0_25_57
*652 FILLER_0_25_69
*653 FILLER_0_25_78
*654 FILLER_0_25_90
*655 FILLER_0_26_106
*656 FILLER_0_26_117
*657 FILLER_0_26_129
*658 FILLER_0_26_137
*659 FILLER_0_26_141
*660 FILLER_0_26_149
*661 FILLER_0_26_159
*662 FILLER_0_26_163
*663 FILLER_0_26_167
*664 FILLER_0_26_179
*665 FILLER_0_26_187
*666 FILLER_0_26_21
*667 FILLER_0_26_27
*668 FILLER_0_26_29
*669 FILLER_0_26_41
*670 FILLER_0_26_53
*671 FILLER_0_26_65
*672 FILLER_0_26_77
*673 FILLER_0_26_83
*674 FILLER_0_26_85
*675 FILLER_0_26_9
*676 FILLER_0_27_105
*677 FILLER_0_27_111
*678 FILLER_0_27_113
*679 FILLER_0_27_125
*680 FILLER_0_27_137
*681 FILLER_0_27_149
*682 FILLER_0_27_15
*683 FILLER_0_27_161
*684 FILLER_0_27_167
*685 FILLER_0_27_169
*686 FILLER_0_27_177
*687 FILLER_0_27_27
*688 FILLER_0_27_3
*689 FILLER_0_27_39
*690 FILLER_0_27_51
*691 FILLER_0_27_55
*692 FILLER_0_27_57
*693 FILLER_0_27_69
*694 FILLER_0_27_77
*695 FILLER_0_27_83
*696 FILLER_0_27_95
*697 FILLER_0_28_100
*698 FILLER_0_28_112
*699 FILLER_0_28_120
*700 FILLER_0_28_128
*701 FILLER_0_28_141
*702 FILLER_0_28_145
*703 FILLER_0_28_152
*704 FILLER_0_28_164
*705 FILLER_0_28_176
*706 FILLER_0_28_184
*707 FILLER_0_28_19
*708 FILLER_0_28_27
*709 FILLER_0_28_29
*710 FILLER_0_28_46
*711 FILLER_0_28_58
*712 FILLER_0_28_7
*713 FILLER_0_28_74
*714 FILLER_0_28_82
*715 FILLER_0_28_88
*716 FILLER_0_29_105
*717 FILLER_0_29_111
*718 FILLER_0_29_113
*719 FILLER_0_29_125
*720 FILLER_0_29_137
*721 FILLER_0_29_145
*722 FILLER_0_29_157
*723 FILLER_0_29_165
*724 FILLER_0_29_169
*725 FILLER_0_29_181
*726 FILLER_0_29_189
*727 FILLER_0_29_3
*728 FILLER_0_29_33
*729 FILLER_0_29_45
*730 FILLER_0_29_53
*731 FILLER_0_29_64
*732 FILLER_0_29_77
*733 FILLER_0_29_81
*734 FILLER_0_29_93
*735 FILLER_0_2_101
*736 FILLER_0_2_107
*737 FILLER_0_2_11
*738 FILLER_0_2_119
*739 FILLER_0_2_131
*740 FILLER_0_2_139
*741 FILLER_0_2_141
*742 FILLER_0_2_15
*743 FILLER_0_2_187
*744 FILLER_0_2_27
*745 FILLER_0_2_29
*746 FILLER_0_2_41
*747 FILLER_0_2_53
*748 FILLER_0_2_6
*749 FILLER_0_2_76
*750 FILLER_0_2_85
*751 FILLER_0_2_97
*752 FILLER_0_30_109
*753 FILLER_0_30_121
*754 FILLER_0_30_133
*755 FILLER_0_30_139
*756 FILLER_0_30_141
*757 FILLER_0_30_153
*758 FILLER_0_30_160
*759 FILLER_0_30_172
*760 FILLER_0_30_184
*761 FILLER_0_30_22
*762 FILLER_0_30_3
*763 FILLER_0_30_42
*764 FILLER_0_30_50
*765 FILLER_0_30_62
*766 FILLER_0_30_74
*767 FILLER_0_30_82
*768 FILLER_0_30_97
*769 FILLER_0_31_101
*770 FILLER_0_31_109
*771 FILLER_0_31_122
*772 FILLER_0_31_134
*773 FILLER_0_31_146
*774 FILLER_0_31_158
*775 FILLER_0_31_166
*776 FILLER_0_31_169
*777 FILLER_0_31_181
*778 FILLER_0_31_189
*779 FILLER_0_31_19
*780 FILLER_0_31_31
*781 FILLER_0_31_40
*782 FILLER_0_31_48
*783 FILLER_0_31_57
*784 FILLER_0_31_65
*785 FILLER_0_31_7
*786 FILLER_0_31_74
*787 FILLER_0_31_86
*788 FILLER_0_32_109
*789 FILLER_0_32_121
*790 FILLER_0_32_137
*791 FILLER_0_32_141
*792 FILLER_0_32_149
*793 FILLER_0_32_15
*794 FILLER_0_32_158
*795 FILLER_0_32_170
*796 FILLER_0_32_182
*797 FILLER_0_32_27
*798 FILLER_0_32_29
*799 FILLER_0_32_3
*800 FILLER_0_32_40
*801 FILLER_0_32_44
*802 FILLER_0_32_56
*803 FILLER_0_32_68
*804 FILLER_0_32_80
*805 FILLER_0_32_85
*806 FILLER_0_32_97
*807 FILLER_0_33_105
*808 FILLER_0_33_111
*809 FILLER_0_33_119
*810 FILLER_0_33_131
*811 FILLER_0_33_143
*812 FILLER_0_33_155
*813 FILLER_0_33_167
*814 FILLER_0_33_179
*815 FILLER_0_33_185
*816 FILLER_0_33_19
*817 FILLER_0_33_31
*818 FILLER_0_33_43
*819 FILLER_0_33_55
*820 FILLER_0_33_57
*821 FILLER_0_33_69
*822 FILLER_0_33_7
*823 FILLER_0_33_81
*824 FILLER_0_33_93
*825 FILLER_0_34_109
*826 FILLER_0_34_121
*827 FILLER_0_34_136
*828 FILLER_0_34_141
*829 FILLER_0_34_15
*830 FILLER_0_34_188
*831 FILLER_0_34_27
*832 FILLER_0_34_29
*833 FILLER_0_34_3
*834 FILLER_0_34_37
*835 FILLER_0_34_46
*836 FILLER_0_34_58
*837 FILLER_0_34_70
*838 FILLER_0_34_82
*839 FILLER_0_34_85
*840 FILLER_0_34_97
*841 FILLER_0_35_113
*842 FILLER_0_35_141
*843 FILLER_0_35_15
*844 FILLER_0_35_153
*845 FILLER_0_35_165
*846 FILLER_0_35_169
*847 FILLER_0_35_180
*848 FILLER_0_35_188
*849 FILLER_0_35_27
*850 FILLER_0_35_3
*851 FILLER_0_35_39
*852 FILLER_0_35_51
*853 FILLER_0_35_55
*854 FILLER_0_35_57
*855 FILLER_0_35_69
*856 FILLER_0_35_81
*857 FILLER_0_35_93
*858 FILLER_0_35_97
*859 FILLER_0_36_104
*860 FILLER_0_36_116
*861 FILLER_0_36_12
*862 FILLER_0_36_134
*863 FILLER_0_36_154
*864 FILLER_0_36_166
*865 FILLER_0_36_178
*866 FILLER_0_36_24
*867 FILLER_0_36_43
*868 FILLER_0_36_55
*869 FILLER_0_36_67
*870 FILLER_0_36_71
*871 FILLER_0_36_77
*872 FILLER_0_36_83
*873 FILLER_0_36_85
*874 FILLER_0_36_98
*875 FILLER_0_37_105
*876 FILLER_0_37_111
*877 FILLER_0_37_118
*878 FILLER_0_37_138
*879 FILLER_0_37_150
*880 FILLER_0_37_167
*881 FILLER_0_37_174
*882 FILLER_0_37_186
*883 FILLER_0_37_19
*884 FILLER_0_37_23
*885 FILLER_0_37_3
*886 FILLER_0_37_31
*887 FILLER_0_37_43
*888 FILLER_0_37_55
*889 FILLER_0_37_57
*890 FILLER_0_37_69
*891 FILLER_0_37_81
*892 FILLER_0_37_93
*893 FILLER_0_38_103
*894 FILLER_0_38_113
*895 FILLER_0_38_121
*896 FILLER_0_38_132
*897 FILLER_0_38_141
*898 FILLER_0_38_146
*899 FILLER_0_38_155
*900 FILLER_0_38_171
*901 FILLER_0_38_183
*902 FILLER_0_38_189
*903 FILLER_0_38_21
*904 FILLER_0_38_27
*905 FILLER_0_38_29
*906 FILLER_0_38_41
*907 FILLER_0_38_51
*908 FILLER_0_38_60
*909 FILLER_0_38_76
*910 FILLER_0_38_9
*911 FILLER_0_38_91
*912 FILLER_0_39_101
*913 FILLER_0_39_109
*914 FILLER_0_39_113
*915 FILLER_0_39_125
*916 FILLER_0_39_131
*917 FILLER_0_39_139
*918 FILLER_0_39_151
*919 FILLER_0_39_163
*920 FILLER_0_39_167
*921 FILLER_0_39_169
*922 FILLER_0_39_18
*923 FILLER_0_39_181
*924 FILLER_0_39_189
*925 FILLER_0_39_36
*926 FILLER_0_39_48
*927 FILLER_0_39_57
*928 FILLER_0_39_6
*929 FILLER_0_39_69
*930 FILLER_0_39_81
*931 FILLER_0_39_93
*932 FILLER_0_3_101
*933 FILLER_0_3_109
*934 FILLER_0_3_113
*935 FILLER_0_3_12
*936 FILLER_0_3_125
*937 FILLER_0_3_137
*938 FILLER_0_3_150
*939 FILLER_0_3_161
*940 FILLER_0_3_167
*941 FILLER_0_3_169
*942 FILLER_0_3_181
*943 FILLER_0_3_189
*944 FILLER_0_3_24
*945 FILLER_0_3_36
*946 FILLER_0_3_48
*947 FILLER_0_3_57
*948 FILLER_0_3_61
*949 FILLER_0_3_89
*950 FILLER_0_40_109
*951 FILLER_0_40_121
*952 FILLER_0_40_133
*953 FILLER_0_40_139
*954 FILLER_0_40_141
*955 FILLER_0_40_153
*956 FILLER_0_40_165
*957 FILLER_0_40_177
*958 FILLER_0_40_20
*959 FILLER_0_40_29
*960 FILLER_0_40_41
*961 FILLER_0_40_47
*962 FILLER_0_40_59
*963 FILLER_0_40_67
*964 FILLER_0_40_79
*965 FILLER_0_40_83
*966 FILLER_0_40_85
*967 FILLER_0_40_97
*968 FILLER_0_41_113
*969 FILLER_0_41_125
*970 FILLER_0_41_137
*971 FILLER_0_41_149
*972 FILLER_0_41_157
*973 FILLER_0_41_165
*974 FILLER_0_41_169
*975 FILLER_0_41_177
*976 FILLER_0_41_21
*977 FILLER_0_41_29
*978 FILLER_0_41_38
*979 FILLER_0_41_50
*980 FILLER_0_41_57
*981 FILLER_0_41_69
*982 FILLER_0_41_78
*983 FILLER_0_41_9
*984 FILLER_0_41_90
*985 FILLER_0_41_98
*986 FILLER_0_42_109
*987 FILLER_0_42_121
*988 FILLER_0_42_136
*989 FILLER_0_42_141
*990 FILLER_0_42_146
*991 FILLER_0_42_156
*992 FILLER_0_42_17
*993 FILLER_0_42_184
*994 FILLER_0_42_25
*995 FILLER_0_42_29
*996 FILLER_0_42_41
*997 FILLER_0_42_53
*998 FILLER_0_42_65
*999 FILLER_0_42_82
*1000 FILLER_0_42_85
*1001 FILLER_0_42_9
*1002 FILLER_0_42_97
*1003 FILLER_0_43_101
*1004 FILLER_0_43_109
*1005 FILLER_0_43_113
*1006 FILLER_0_43_125
*1007 FILLER_0_43_131
*1008 FILLER_0_43_138
*1009 FILLER_0_43_14
*1010 FILLER_0_43_149
*1011 FILLER_0_43_161
*1012 FILLER_0_43_167
*1013 FILLER_0_43_169
*1014 FILLER_0_43_181
*1015 FILLER_0_43_189
*1016 FILLER_0_43_26
*1017 FILLER_0_43_3
*1018 FILLER_0_43_38
*1019 FILLER_0_43_57
*1020 FILLER_0_43_65
*1021 FILLER_0_43_77
*1022 FILLER_0_43_89
*1023 FILLER_0_44_102
*1024 FILLER_0_44_114
*1025 FILLER_0_44_126
*1026 FILLER_0_44_134
*1027 FILLER_0_44_141
*1028 FILLER_0_44_15
*1029 FILLER_0_44_153
*1030 FILLER_0_44_165
*1031 FILLER_0_44_177
*1032 FILLER_0_44_189
*1033 FILLER_0_44_27
*1034 FILLER_0_44_29
*1035 FILLER_0_44_3
*1036 FILLER_0_44_47
*1037 FILLER_0_44_59
*1038 FILLER_0_44_63
*1039 FILLER_0_44_69
*1040 FILLER_0_44_81
*1041 FILLER_0_44_90
*1042 FILLER_0_45_106
*1043 FILLER_0_45_113
*1044 FILLER_0_45_125
*1045 FILLER_0_45_137
*1046 FILLER_0_45_141
*1047 FILLER_0_45_15
*1048 FILLER_0_45_156
*1049 FILLER_0_45_169
*1050 FILLER_0_45_179
*1051 FILLER_0_45_187
*1052 FILLER_0_45_23
*1053 FILLER_0_45_3
*1054 FILLER_0_45_46
*1055 FILLER_0_45_54
*1056 FILLER_0_45_57
*1057 FILLER_0_45_69
*1058 FILLER_0_45_82
*1059 FILLER_0_45_94
*1060 FILLER_0_46_107
*1061 FILLER_0_46_111
*1062 FILLER_0_46_127
*1063 FILLER_0_46_141
*1064 FILLER_0_46_153
*1065 FILLER_0_46_165
*1066 FILLER_0_46_176
*1067 FILLER_0_46_180
*1068 FILLER_0_46_184
*1069 FILLER_0_46_19
*1070 FILLER_0_46_27
*1071 FILLER_0_46_29
*1072 FILLER_0_46_41
*1073 FILLER_0_46_53
*1074 FILLER_0_46_57
*1075 FILLER_0_46_7
*1076 FILLER_0_46_70
*1077 FILLER_0_46_82
*1078 FILLER_0_46_85
*1079 FILLER_0_46_97
*1080 FILLER_0_4_105
*1081 FILLER_0_4_111
*1082 FILLER_0_4_123
*1083 FILLER_0_4_135
*1084 FILLER_0_4_139
*1085 FILLER_0_4_141
*1086 FILLER_0_4_15
*1087 FILLER_0_4_153
*1088 FILLER_0_4_165
*1089 FILLER_0_4_177
*1090 FILLER_0_4_189
*1091 FILLER_0_4_27
*1092 FILLER_0_4_29
*1093 FILLER_0_4_3
*1094 FILLER_0_4_52
*1095 FILLER_0_4_64
*1096 FILLER_0_4_76
*1097 FILLER_0_4_85
*1098 FILLER_0_4_97
*1099 FILLER_0_5_105
*1100 FILLER_0_5_111
*1101 FILLER_0_5_133
*1102 FILLER_0_5_145
*1103 FILLER_0_5_15
*1104 FILLER_0_5_157
*1105 FILLER_0_5_165
*1106 FILLER_0_5_176
*1107 FILLER_0_5_188
*1108 FILLER_0_5_27
*1109 FILLER_0_5_3
*1110 FILLER_0_5_35
*1111 FILLER_0_5_54
*1112 FILLER_0_5_57
*1113 FILLER_0_5_69
*1114 FILLER_0_5_81
*1115 FILLER_0_5_93
*1116 FILLER_0_6_106
*1117 FILLER_0_6_116
*1118 FILLER_0_6_128
*1119 FILLER_0_6_150
*1120 FILLER_0_6_162
*1121 FILLER_0_6_173
*1122 FILLER_0_6_181
*1123 FILLER_0_6_19
*1124 FILLER_0_6_27
*1125 FILLER_0_6_29
*1126 FILLER_0_6_41
*1127 FILLER_0_6_49
*1128 FILLER_0_6_66
*1129 FILLER_0_6_7
*1130 FILLER_0_6_78
*1131 FILLER_0_6_85
*1132 FILLER_0_6_94
*1133 FILLER_0_7_10
*1134 FILLER_0_7_105
*1135 FILLER_0_7_111
*1136 FILLER_0_7_113
*1137 FILLER_0_7_125
*1138 FILLER_0_7_137
*1139 FILLER_0_7_149
*1140 FILLER_0_7_161
*1141 FILLER_0_7_167
*1142 FILLER_0_7_176
*1143 FILLER_0_7_18
*1144 FILLER_0_7_27
*1145 FILLER_0_7_39
*1146 FILLER_0_7_45
*1147 FILLER_0_7_53
*1148 FILLER_0_7_57
*1149 FILLER_0_7_69
*1150 FILLER_0_7_81
*1151 FILLER_0_7_93
*1152 FILLER_0_8_109
*1153 FILLER_0_8_121
*1154 FILLER_0_8_131
*1155 FILLER_0_8_139
*1156 FILLER_0_8_141
*1157 FILLER_0_8_153
*1158 FILLER_0_8_21
*1159 FILLER_0_8_27
*1160 FILLER_0_8_29
*1161 FILLER_0_8_46
*1162 FILLER_0_8_58
*1163 FILLER_0_8_70
*1164 FILLER_0_8_82
*1165 FILLER_0_8_85
*1166 FILLER_0_8_9
*1167 FILLER_0_8_97
*1168 FILLER_0_9_107
*1169 FILLER_0_9_111
*1170 FILLER_0_9_113
*1171 FILLER_0_9_125
*1172 FILLER_0_9_137
*1173 FILLER_0_9_149
*1174 FILLER_0_9_15
*1175 FILLER_0_9_161
*1176 FILLER_0_9_167
*1177 FILLER_0_9_169
*1178 FILLER_0_9_177
*1179 FILLER_0_9_182
*1180 FILLER_0_9_19
*1181 FILLER_0_9_26
*1182 FILLER_0_9_3
*1183 FILLER_0_9_38
*1184 FILLER_0_9_50
*1185 FILLER_0_9_57
*1186 FILLER_0_9_69
*1187 FILLER_0_9_83
*1188 FILLER_0_9_95
*1189 PHY_EDGE_ROW_0_Left_47
*1190 PHY_EDGE_ROW_0_Right_0
*1191 PHY_EDGE_ROW_10_Left_57
*1192 PHY_EDGE_ROW_10_Right_10
*1193 PHY_EDGE_ROW_11_Left_58
*1194 PHY_EDGE_ROW_11_Right_11
*1195 PHY_EDGE_ROW_12_Left_59
*1196 PHY_EDGE_ROW_12_Right_12
*1197 PHY_EDGE_ROW_13_Left_60
*1198 PHY_EDGE_ROW_13_Right_13
*1199 PHY_EDGE_ROW_14_Left_61
*1200 PHY_EDGE_ROW_14_Right_14
*1201 PHY_EDGE_ROW_15_Left_62
*1202 PHY_EDGE_ROW_15_Right_15
*1203 PHY_EDGE_ROW_16_Left_63
*1204 PHY_EDGE_ROW_16_Right_16
*1205 PHY_EDGE_ROW_17_Left_64
*1206 PHY_EDGE_ROW_17_Right_17
*1207 PHY_EDGE_ROW_18_Left_65
*1208 PHY_EDGE_ROW_18_Right_18
*1209 PHY_EDGE_ROW_19_Left_66
*1210 PHY_EDGE_ROW_19_Right_19
*1211 PHY_EDGE_ROW_1_Left_48
*1212 PHY_EDGE_ROW_1_Right_1
*1213 PHY_EDGE_ROW_20_Left_67
*1214 PHY_EDGE_ROW_20_Right_20
*1215 PHY_EDGE_ROW_21_Left_68
*1216 PHY_EDGE_ROW_21_Right_21
*1217 PHY_EDGE_ROW_22_Left_69
*1218 PHY_EDGE_ROW_22_Right_22
*1219 PHY_EDGE_ROW_23_Left_70
*1220 PHY_EDGE_ROW_23_Right_23
*1221 PHY_EDGE_ROW_24_Left_71
*1222 PHY_EDGE_ROW_24_Right_24
*1223 PHY_EDGE_ROW_25_Left_72
*1224 PHY_EDGE_ROW_25_Right_25
*1225 PHY_EDGE_ROW_26_Left_73
*1226 PHY_EDGE_ROW_26_Right_26
*1227 PHY_EDGE_ROW_27_Left_74
*1228 PHY_EDGE_ROW_27_Right_27
*1229 PHY_EDGE_ROW_28_Left_75
*1230 PHY_EDGE_ROW_28_Right_28
*1231 PHY_EDGE_ROW_29_Left_76
*1232 PHY_EDGE_ROW_29_Right_29
*1233 PHY_EDGE_ROW_2_Left_49
*1234 PHY_EDGE_ROW_2_Right_2
*1235 PHY_EDGE_ROW_30_Left_77
*1236 PHY_EDGE_ROW_30_Right_30
*1237 PHY_EDGE_ROW_31_Left_78
*1238 PHY_EDGE_ROW_31_Right_31
*1239 PHY_EDGE_ROW_32_Left_79
*1240 PHY_EDGE_ROW_32_Right_32
*1241 PHY_EDGE_ROW_33_Left_80
*1242 PHY_EDGE_ROW_33_Right_33
*1243 PHY_EDGE_ROW_34_Left_81
*1244 PHY_EDGE_ROW_34_Right_34
*1245 PHY_EDGE_ROW_35_Left_82
*1246 PHY_EDGE_ROW_35_Right_35
*1247 PHY_EDGE_ROW_36_Left_83
*1248 PHY_EDGE_ROW_36_Right_36
*1249 PHY_EDGE_ROW_37_Left_84
*1250 PHY_EDGE_ROW_37_Right_37
*1251 PHY_EDGE_ROW_38_Left_85
*1252 PHY_EDGE_ROW_38_Right_38
*1253 PHY_EDGE_ROW_39_Left_86
*1254 PHY_EDGE_ROW_39_Right_39
*1255 PHY_EDGE_ROW_3_Left_50
*1256 PHY_EDGE_ROW_3_Right_3
*1257 PHY_EDGE_ROW_40_Left_87
*1258 PHY_EDGE_ROW_40_Right_40
*1259 PHY_EDGE_ROW_41_Left_88
*1260 PHY_EDGE_ROW_41_Right_41
*1261 PHY_EDGE_ROW_42_Left_89
*1262 PHY_EDGE_ROW_42_Right_42
*1263 PHY_EDGE_ROW_43_Left_90
*1264 PHY_EDGE_ROW_43_Right_43
*1265 PHY_EDGE_ROW_44_Left_91
*1266 PHY_EDGE_ROW_44_Right_44
*1267 PHY_EDGE_ROW_45_Left_92
*1268 PHY_EDGE_ROW_45_Right_45
*1269 PHY_EDGE_ROW_46_Left_93
*1270 PHY_EDGE_ROW_46_Right_46
*1271 PHY_EDGE_ROW_4_Left_51
*1272 PHY_EDGE_ROW_4_Right_4
*1273 PHY_EDGE_ROW_5_Left_52
*1274 PHY_EDGE_ROW_5_Right_5
*1275 PHY_EDGE_ROW_6_Left_53
*1276 PHY_EDGE_ROW_6_Right_6
*1277 PHY_EDGE_ROW_7_Left_54
*1278 PHY_EDGE_ROW_7_Right_7
*1279 PHY_EDGE_ROW_8_Left_55
*1280 PHY_EDGE_ROW_8_Right_8
*1281 PHY_EDGE_ROW_9_Left_56
*1282 PHY_EDGE_ROW_9_Right_9
*1283 TAP_TAPCELL_ROW_0_94
*1284 TAP_TAPCELL_ROW_0_95
*1285 TAP_TAPCELL_ROW_0_96
*1286 TAP_TAPCELL_ROW_0_97
*1287 TAP_TAPCELL_ROW_0_98
*1288 TAP_TAPCELL_ROW_0_99
*1289 TAP_TAPCELL_ROW_10_127
*1290 TAP_TAPCELL_ROW_10_128
*1291 TAP_TAPCELL_ROW_10_129
*1292 TAP_TAPCELL_ROW_11_130
*1293 TAP_TAPCELL_ROW_11_131
*1294 TAP_TAPCELL_ROW_11_132
*1295 TAP_TAPCELL_ROW_12_133
*1296 TAP_TAPCELL_ROW_12_134
*1297 TAP_TAPCELL_ROW_12_135
*1298 TAP_TAPCELL_ROW_13_136
*1299 TAP_TAPCELL_ROW_13_137
*1300 TAP_TAPCELL_ROW_13_138
*1301 TAP_TAPCELL_ROW_14_139
*1302 TAP_TAPCELL_ROW_14_140
*1303 TAP_TAPCELL_ROW_14_141
*1304 TAP_TAPCELL_ROW_15_142
*1305 TAP_TAPCELL_ROW_15_143
*1306 TAP_TAPCELL_ROW_15_144
*1307 TAP_TAPCELL_ROW_16_145
*1308 TAP_TAPCELL_ROW_16_146
*1309 TAP_TAPCELL_ROW_16_147
*1310 TAP_TAPCELL_ROW_17_148
*1311 TAP_TAPCELL_ROW_17_149
*1312 TAP_TAPCELL_ROW_17_150
*1313 TAP_TAPCELL_ROW_18_151
*1314 TAP_TAPCELL_ROW_18_152
*1315 TAP_TAPCELL_ROW_18_153
*1316 TAP_TAPCELL_ROW_19_154
*1317 TAP_TAPCELL_ROW_19_155
*1318 TAP_TAPCELL_ROW_19_156
*1319 TAP_TAPCELL_ROW_1_100
*1320 TAP_TAPCELL_ROW_1_101
*1321 TAP_TAPCELL_ROW_1_102
*1322 TAP_TAPCELL_ROW_20_157
*1323 TAP_TAPCELL_ROW_20_158
*1324 TAP_TAPCELL_ROW_20_159
*1325 TAP_TAPCELL_ROW_21_160
*1326 TAP_TAPCELL_ROW_21_161
*1327 TAP_TAPCELL_ROW_21_162
*1328 TAP_TAPCELL_ROW_22_163
*1329 TAP_TAPCELL_ROW_22_164
*1330 TAP_TAPCELL_ROW_22_165
*1331 TAP_TAPCELL_ROW_23_166
*1332 TAP_TAPCELL_ROW_23_167
*1333 TAP_TAPCELL_ROW_23_168
*1334 TAP_TAPCELL_ROW_24_169
*1335 TAP_TAPCELL_ROW_24_170
*1336 TAP_TAPCELL_ROW_24_171
*1337 TAP_TAPCELL_ROW_25_172
*1338 TAP_TAPCELL_ROW_25_173
*1339 TAP_TAPCELL_ROW_25_174
*1340 TAP_TAPCELL_ROW_26_175
*1341 TAP_TAPCELL_ROW_26_176
*1342 TAP_TAPCELL_ROW_26_177
*1343 TAP_TAPCELL_ROW_27_178
*1344 TAP_TAPCELL_ROW_27_179
*1345 TAP_TAPCELL_ROW_27_180
*1346 TAP_TAPCELL_ROW_28_181
*1347 TAP_TAPCELL_ROW_28_182
*1348 TAP_TAPCELL_ROW_28_183
*1349 TAP_TAPCELL_ROW_29_184
*1350 TAP_TAPCELL_ROW_29_185
*1351 TAP_TAPCELL_ROW_29_186
*1352 TAP_TAPCELL_ROW_2_103
*1353 TAP_TAPCELL_ROW_2_104
*1354 TAP_TAPCELL_ROW_2_105
*1355 TAP_TAPCELL_ROW_30_187
*1356 TAP_TAPCELL_ROW_30_188
*1357 TAP_TAPCELL_ROW_30_189
*1358 TAP_TAPCELL_ROW_31_190
*1359 TAP_TAPCELL_ROW_31_191
*1360 TAP_TAPCELL_ROW_31_192
*1361 TAP_TAPCELL_ROW_32_193
*1362 TAP_TAPCELL_ROW_32_194
*1363 TAP_TAPCELL_ROW_32_195
*1364 TAP_TAPCELL_ROW_33_196
*1365 TAP_TAPCELL_ROW_33_197
*1366 TAP_TAPCELL_ROW_33_198
*1367 TAP_TAPCELL_ROW_34_199
*1368 TAP_TAPCELL_ROW_34_200
*1369 TAP_TAPCELL_ROW_34_201
*1370 TAP_TAPCELL_ROW_35_202
*1371 TAP_TAPCELL_ROW_35_203
*1372 TAP_TAPCELL_ROW_35_204
*1373 TAP_TAPCELL_ROW_36_205
*1374 TAP_TAPCELL_ROW_36_206
*1375 TAP_TAPCELL_ROW_36_207
*1376 TAP_TAPCELL_ROW_37_208
*1377 TAP_TAPCELL_ROW_37_209
*1378 TAP_TAPCELL_ROW_37_210
*1379 TAP_TAPCELL_ROW_38_211
*1380 TAP_TAPCELL_ROW_38_212
*1381 TAP_TAPCELL_ROW_38_213
*1382 TAP_TAPCELL_ROW_39_214
*1383 TAP_TAPCELL_ROW_39_215
*1384 TAP_TAPCELL_ROW_39_216
*1385 TAP_TAPCELL_ROW_3_106
*1386 TAP_TAPCELL_ROW_3_107
*1387 TAP_TAPCELL_ROW_3_108
*1388 TAP_TAPCELL_ROW_40_217
*1389 TAP_TAPCELL_ROW_40_218
*1390 TAP_TAPCELL_ROW_40_219
*1391 TAP_TAPCELL_ROW_41_220
*1392 TAP_TAPCELL_ROW_41_221
*1393 TAP_TAPCELL_ROW_41_222
*1394 TAP_TAPCELL_ROW_42_223
*1395 TAP_TAPCELL_ROW_42_224
*1396 TAP_TAPCELL_ROW_42_225
*1397 TAP_TAPCELL_ROW_43_226
*1398 TAP_TAPCELL_ROW_43_227
*1399 TAP_TAPCELL_ROW_43_228
*1400 TAP_TAPCELL_ROW_44_229
*1401 TAP_TAPCELL_ROW_44_230
*1402 TAP_TAPCELL_ROW_44_231
*1403 TAP_TAPCELL_ROW_45_232
*1404 TAP_TAPCELL_ROW_45_233
*1405 TAP_TAPCELL_ROW_45_234
*1406 TAP_TAPCELL_ROW_46_235
*1407 TAP_TAPCELL_ROW_46_236
*1408 TAP_TAPCELL_ROW_46_237
*1409 TAP_TAPCELL_ROW_46_238
*1410 TAP_TAPCELL_ROW_46_239
*1411 TAP_TAPCELL_ROW_46_240
*1412 TAP_TAPCELL_ROW_4_109
*1413 TAP_TAPCELL_ROW_4_110
*1414 TAP_TAPCELL_ROW_4_111
*1415 TAP_TAPCELL_ROW_5_112
*1416 TAP_TAPCELL_ROW_5_113
*1417 TAP_TAPCELL_ROW_5_114
*1418 TAP_TAPCELL_ROW_6_115
*1419 TAP_TAPCELL_ROW_6_116
*1420 TAP_TAPCELL_ROW_6_117
*1421 TAP_TAPCELL_ROW_7_118
*1422 TAP_TAPCELL_ROW_7_119
*1423 TAP_TAPCELL_ROW_7_120
*1424 TAP_TAPCELL_ROW_8_121
*1425 TAP_TAPCELL_ROW_8_122
*1426 TAP_TAPCELL_ROW_8_123
*1427 TAP_TAPCELL_ROW_9_124
*1428 TAP_TAPCELL_ROW_9_125
*1429 TAP_TAPCELL_ROW_9_126
*1430 _248_
*1431 _249_
*1432 _250_
*1433 _251_
*1434 _252_
*1435 _253_
*1436 _254_
*1437 _255_
*1438 _256_
*1439 _257_
*1440 _258_
*1441 _259_
*1442 _260_
*1443 _261_
*1444 _262_
*1445 _263_
*1446 _264_
*1447 _265_
*1448 _266_
*1449 _267_
*1450 _268_
*1451 _269_
*1452 _270_
*1453 _271_
*1454 _272_
*1455 _273_
*1456 _274_
*1457 _275_
*1458 _276_
*1459 _277_
*1460 _278_
*1461 _279_
*1462 _280_
*1463 _281_
*1464 _282_
*1465 _283_
*1466 _284_
*1467 _285_
*1468 _286_
*1469 _287_
*1470 _288_
*1471 _289_
*1472 _290_
*1473 _291_
*1474 _292_
*1475 _293_
*1476 _294_
*1477 _295_
*1478 _296_
*1479 _297_
*1480 _298_
*1481 _299_
*1482 _300_
*1483 _301_
*1484 _302_
*1485 _303_
*1486 _304_
*1487 _305_
*1488 _306_
*1489 _307_
*1490 _308_
*1491 _309_
*1492 _310_
*1493 _311_
*1494 _312_
*1495 _313_
*1496 _314_
*1497 _315_
*1498 _316_
*1499 _317_
*1500 _318_
*1501 _319_
*1502 _320_
*1503 _321_
*1504 _322_
*1505 _323_
*1506 _324_
*1507 _325_
*1508 _326_
*1509 _327_
*1510 _328_
*1511 _329_
*1512 _330_
*1513 _331_
*1514 _332_
*1515 _333_
*1516 _334_
*1517 _335_
*1518 _336_
*1519 _337_
*1520 _338_
*1521 _339_
*1522 _340_
*1523 _341_
*1524 _342_
*1525 _343_
*1526 _344_
*1527 _345_
*1528 _346_
*1529 _347_
*1530 _348_
*1531 _349_
*1532 _350_
*1533 _351_
*1534 _352_
*1535 _353_
*1536 _354_
*1537 _355_
*1538 _356_
*1539 _357_
*1540 _358_
*1541 _359_
*1542 _360_
*1543 _361_
*1544 _362_
*1545 _363_
*1546 _364_
*1547 _365_
*1548 _366_
*1549 _367_
*1550 _368_
*1551 _369_
*1552 _370_
*1553 _371_
*1554 _372_
*1555 _373_
*1556 _374_
*1557 _375_
*1558 _376_
*1559 _377_
*1560 _378_
*1561 _379_
*1562 _380_
*1563 _381_
*1564 _382_